data_image0
_chemical_formula_structural       Al4Be6Si24O72
_chemical_formula_sum              "Al4 Be6 Si24 O72"
_cell_length_a       9.21
_cell_length_b       9.21
_cell_length_c       9.17
_cell_angle_alpha    90.0
_cell_angle_beta     90.0
_cell_angle_gamma    119.99999999999999

_space_group_name_H-M_alt    "P 1"
_space_group_IT_number       1

loop_
  _space_group_symop_operation_xyz
  'x, y, z'

loop_
  _atom_site_type_symbol
  _atom_site_label
  _atom_site_symmetry_multiplicity
  _atom_site_fract_x
  _atom_site_fract_y
  _atom_site_fract_z
  _atom_site_occupancy
  Al  Al1       1.0  0.6666999999999998  0.3332999999999999  0.0  1.0000
  Al  Al2       1.0  0.3333  0.6667  0.0  1.0000
  Al  Al3       1.0  0.6666999999999998  0.3332999999999999  0.5  1.0000
  Al  Al4       1.0  0.3333  0.6667  0.5  1.0000
  Be  Be1       1.0  0.5  0.0  0.0  1.0000
  Be  Be2       1.0  0.5  0.49999999999999994  0.0  1.0000
  Be  Be3       1.0  0.0  0.49999999999999994  0.0  1.0000
  Be  Be4       1.0  0.5  0.0  0.5  1.0000
  Be  Be5       1.0  0.5  0.49999999999999994  0.5  1.0000
  Be  Be6       1.0  0.0  0.49999999999999994  0.5  1.0000
  Si  Si1       1.0  0.39  0.12  0.25  1.0000
  Si  Si2       1.0  0.6099999999999999  0.8799999999999999  0.25  1.0000
  Si  Si3       1.0  0.7299999999999999  0.6099999999999999  0.25  1.0000
  Si  Si4       1.0  0.27  0.38999999999999996  0.25  1.0000
  Si  Si5       1.0  0.88  0.27  0.25  1.0000
  Si  Si6       1.0  0.11999999999999997  0.73  0.25  1.0000
  Si  Si7       1.0  0.11999999999999997  0.38999999999999996  0.7499999999999999  1.0000
  Si  Si8       1.0  0.88  0.6099999999999999  0.7499999999999999  1.0000
  Si  Si9       1.0  0.61  0.73  0.7499999999999999  1.0000
  Si  Si10      1.0  0.39  0.27  0.7499999999999999  1.0000
  Si  Si11      1.0  0.26999999999999996  0.8799999999999999  0.7499999999999999  1.0000
  Si  Si12      1.0  0.73  0.12  0.7499999999999999  1.0000
  Si  Si13      1.0  0.6099999999999999  0.8799999999999999  0.7499999999999999  1.0000
  Si  Si14      1.0  0.39  0.12  0.7499999999999999  1.0000
  Si  Si15      1.0  0.27  0.38999999999999996  0.7499999999999999  1.0000
  Si  Si16      1.0  0.7299999999999999  0.6099999999999999  0.7499999999999999  1.0000
  Si  Si17      1.0  0.11999999999999997  0.73  0.7499999999999999  1.0000
  Si  Si18      1.0  0.88  0.27  0.7499999999999999  1.0000
  Si  Si19      1.0  0.88  0.6099999999999999  0.25  1.0000
  Si  Si20      1.0  0.11999999999999997  0.38999999999999996  0.25  1.0000
  Si  Si21      1.0  0.39  0.27  0.25  1.0000
  Si  Si22      1.0  0.61  0.73  0.25  1.0000
  Si  Si23      1.0  0.73  0.12  0.25  1.0000
  Si  Si24      1.0  0.26999999999999996  0.8799999999999999  0.25  1.0000
  O   O1        1.0  0.4799999999999999  0.14999999999999994  0.1  1.0000
  O   O2        1.0  0.5200000000000001  0.8500000000000001  0.1  1.0000
  O   O3        1.0  0.67  0.52  0.1  1.0000
  O   O4        1.0  0.32999999999999996  0.4799999999999999  0.1  1.0000
  O   O5        1.0  0.8500000000000001  0.3299999999999999  0.1  1.0000
  O   O6        1.0  0.14999999999999988  0.6699999999999999  0.1  1.0000
  O   O7        1.0  0.14999999999999997  0.4799999999999999  0.9  1.0000
  O   O8        1.0  0.8500000000000001  0.52  0.9  1.0000
  O   O9        1.0  0.52  0.6699999999999999  0.9  1.0000
  O   O10       1.0  0.4799999999999999  0.3299999999999999  0.9  1.0000
  O   O11       1.0  0.32999999999999996  0.8500000000000001  0.9  1.0000
  O   O12       1.0  0.67  0.14999999999999994  0.9  1.0000
  O   O13       1.0  0.4799999999999999  0.14999999999999994  0.4  1.0000
  O   O14       1.0  0.5200000000000001  0.8500000000000001  0.4  1.0000
  O   O15       1.0  0.67  0.52  0.4  1.0000
  O   O16       1.0  0.32999999999999996  0.4799999999999999  0.4  1.0000
  O   O17       1.0  0.8500000000000001  0.3299999999999999  0.4  1.0000
  O   O18       1.0  0.14999999999999988  0.6699999999999999  0.4  1.0000
  O   O19       1.0  0.14999999999999997  0.4799999999999999  0.6  1.0000
  O   O20       1.0  0.8500000000000001  0.52  0.6  1.0000
  O   O21       1.0  0.52  0.6699999999999999  0.6  1.0000
  O   O22       1.0  0.4799999999999999  0.3299999999999999  0.6  1.0000
  O   O23       1.0  0.32999999999999996  0.8500000000000001  0.6  1.0000
  O   O24       1.0  0.67  0.14999999999999994  0.6  1.0000
  O   O25       1.0  0.5200000000000001  0.8500000000000001  0.9  1.0000
  O   O26       1.0  0.4799999999999999  0.14999999999999994  0.9  1.0000
  O   O27       1.0  0.32999999999999996  0.4799999999999999  0.9  1.0000
  O   O28       1.0  0.67  0.52  0.9  1.0000
  O   O29       1.0  0.14999999999999988  0.6699999999999999  0.9  1.0000
  O   O30       1.0  0.8500000000000001  0.3299999999999999  0.9  1.0000
  O   O31       1.0  0.8500000000000001  0.52  0.1  1.0000
  O   O32       1.0  0.14999999999999997  0.4799999999999999  0.1  1.0000
  O   O33       1.0  0.4799999999999999  0.3299999999999999  0.1  1.0000
  O   O34       1.0  0.52  0.6699999999999999  0.1  1.0000
  O   O35       1.0  0.67  0.14999999999999994  0.1  1.0000
  O   O36       1.0  0.32999999999999996  0.8500000000000001  0.1  1.0000
  O   O37       1.0  0.5200000000000001  0.8500000000000001  0.6  1.0000
  O   O38       1.0  0.4799999999999999  0.14999999999999994  0.6  1.0000
  O   O39       1.0  0.32999999999999996  0.4799999999999999  0.6  1.0000
  O   O40       1.0  0.67  0.52  0.6  1.0000
  O   O41       1.0  0.14999999999999988  0.6699999999999999  0.6  1.0000
  O   O42       1.0  0.8500000000000001  0.3299999999999999  0.6  1.0000
  O   O43       1.0  0.8500000000000001  0.52  0.4  1.0000
  O   O44       1.0  0.14999999999999997  0.4799999999999999  0.4  1.0000
  O   O45       1.0  0.4799999999999999  0.3299999999999999  0.4  1.0000
  O   O46       1.0  0.52  0.6699999999999999  0.4  1.0000
  O   O47       1.0  0.67  0.14999999999999994  0.4  1.0000
  O   O48       1.0  0.32999999999999996  0.8500000000000001  0.4  1.0000
  O   O49       1.0  0.30000000000000004  0.24  0.25  1.0000
  O   O50       1.0  0.6999999999999998  0.7599999999999999  0.25  1.0000
  O   O51       1.0  0.9400000000000001  0.6999999999999998  0.25  1.0000
  O   O52       1.0  0.06000000000000002  0.3  0.25  1.0000
  O   O53       1.0  0.76  0.06000000000000005  0.25  1.0000
  O   O54       1.0  0.23999999999999988  0.9399999999999998  0.25  1.0000
  O   O55       1.0  0.23999999999999994  0.3  0.7499999999999999  1.0000
  O   O56       1.0  0.76  0.6999999999999998  0.7499999999999999  1.0000
  O   O57       1.0  0.6999999999999998  0.9399999999999998  0.7499999999999999  1.0000
  O   O58       1.0  0.30000000000000004  0.06000000000000005  0.7499999999999999  1.0000
  O   O59       1.0  0.06000000000000002  0.7599999999999999  0.7499999999999999  1.0000
  O   O60       1.0  0.9400000000000001  0.24  0.7499999999999999  1.0000
  O   O61       1.0  0.6999999999999998  0.7599999999999999  0.7499999999999999  1.0000
  O   O62       1.0  0.30000000000000004  0.24  0.7499999999999999  1.0000
  O   O63       1.0  0.06000000000000002  0.3  0.7499999999999999  1.0000
  O   O64       1.0  0.9400000000000001  0.6999999999999998  0.7499999999999999  1.0000
  O   O65       1.0  0.23999999999999988  0.9399999999999998  0.7499999999999999  1.0000
  O   O66       1.0  0.76  0.06000000000000005  0.7499999999999999  1.0000
  O   O67       1.0  0.76  0.6999999999999998  0.25  1.0000
  O   O68       1.0  0.23999999999999994  0.3  0.25  1.0000
  O   O69       1.0  0.30000000000000004  0.06000000000000005  0.25  1.0000
  O   O70       1.0  0.6999999999999998  0.9399999999999998  0.25  1.0000
  O   O71       1.0  0.9400000000000001  0.24  0.25  1.0000
  O   O72       1.0  0.06000000000000002  0.7599999999999999  0.25  1.0000
