data_image0
_chemical_formula_structural       Tm24Sb8
_chemical_formula_sum              "Tm24 Sb8"
_cell_length_a       12.2294
_cell_length_b       12.2294
_cell_length_c       5.9852
_cell_angle_alpha    90.0
_cell_angle_beta     90.0
_cell_angle_gamma    90.0

_space_group_name_H-M_alt    "P 1"
_space_group_IT_number       1

loop_
  _space_group_symop_operation_xyz
  'x, y, z'

loop_
  _atom_site_type_symbol
  _atom_site_label
  _atom_site_symmetry_multiplicity
  _atom_site_fract_x
  _atom_site_fract_y
  _atom_site_fract_z
  _atom_site_occupancy
  Tm  Tm1       1.0  0.66109  0.34978  0.22406  1.0000
  Tm  Tm2       1.0  0.8389099999999999  0.15022000000000002  0.22406  1.0000
  Tm  Tm3       1.0  0.65022  0.16108999999999996  0.7240600000000001  1.0000
  Tm  Tm4       1.0  0.8497799999999999  0.33891000000000004  0.7240600000000001  1.0000
  Tm  Tm5       1.0  0.33891000000000004  0.65022  0.7759400000000001  1.0000
  Tm  Tm6       1.0  0.16108999999999996  0.8497799999999999  0.7759400000000001  1.0000
  Tm  Tm7       1.0  0.34978  0.8389099999999999  0.27593999999999996  1.0000
  Tm  Tm8       1.0  0.15022000000000002  0.66109  0.27593999999999996  1.0000
  Tm  Tm9       1.0  0.42654  0.53039  0.25739  1.0000
  Tm  Tm10      1.0  0.07346000000000003  0.9696099999999999  0.25739  1.0000
  Tm  Tm11      1.0  0.46960999999999997  0.9265399999999999  0.7573900000000001  1.0000
  Tm  Tm12      1.0  0.03039000000000014  0.5734600000000001  0.7573900000000001  1.0000
  Tm  Tm13      1.0  0.5734600000000001  0.46960999999999997  0.74261  1.0000
  Tm  Tm14      1.0  0.9265399999999999  0.03039000000000014  0.74261  1.0000
  Tm  Tm15      1.0  0.53039  0.07346000000000003  0.24261000000000002  1.0000
  Tm  Tm16      1.0  0.9696099999999999  0.42654  0.24261000000000002  1.0000
  Tm  Tm17      1.0  0.39039999999999997  0.27672  0.9842  1.0000
  Tm  Tm18      1.0  0.10960000000000003  0.22327999999999995  0.9842  1.0000
  Tm  Tm19      1.0  0.7232799999999999  0.8904  0.4842  1.0000
  Tm  Tm20      1.0  0.7767200000000001  0.6096  0.4842  1.0000
  Tm  Tm21      1.0  0.6096  0.7232799999999999  0.0158  1.0000
  Tm  Tm22      1.0  0.8904  0.7767200000000001  0.0158  1.0000
  Tm  Tm23      1.0  0.27672  0.10960000000000003  0.5158  1.0000
  Tm  Tm24      1.0  0.22327999999999995  0.39039999999999997  0.5158  1.0000
  Sb  Sb1       1.0  0.79032  0.54872  0.98798  1.0000
  Sb  Sb2       1.0  0.7096799999999999  0.95128  0.98798  1.0000
  Sb  Sb3       1.0  0.45128  0.2903199999999999  0.4879800000000001  1.0000
  Sb  Sb4       1.0  0.048719999999999875  0.20967999999999998  0.4879800000000001  1.0000
  Sb  Sb5       1.0  0.20967999999999998  0.45128  0.01202  1.0000
  Sb  Sb6       1.0  0.2903199999999999  0.048719999999999875  0.01202  1.0000
  Sb  Sb7       1.0  0.54872  0.7096799999999999  0.51202  1.0000
  Sb  Sb8       1.0  0.95128  0.79032  0.51202  1.0000
