data_image0
_chemical_formula_structural       Al12S18
_chemical_formula_sum              "Al12 S18"
_cell_length_a       6.438
_cell_length_b       6.437999999999999
_cell_length_c       17.898
_cell_angle_alpha    90.0
_cell_angle_beta     90.0
_cell_angle_gamma    119.99999999999999

_space_group_name_H-M_alt    "P 1"
_space_group_IT_number       1

loop_
  _space_group_symop_operation_xyz
  'x, y, z'

loop_
  _atom_site_type_symbol
  _atom_site_label
  _atom_site_symmetry_multiplicity
  _atom_site_fract_x
  _atom_site_fract_y
  _atom_site_fract_z
  _atom_site_occupancy
  Al  Al1       1.0  0.3449  0.3571  0.21615  1.0000
  Al  Al2       1.0  0.9878000000000001  0.3449  0.3828166666666667  1.0000
  Al  Al3       1.0  0.6429000000000001  0.9878000000000001  0.5494833333333333  1.0000
  Al  Al4       1.0  0.6551  0.6429  0.7161500000000002  1.0000
  Al  Al5       1.0  0.012200000000000055  0.6551000000000001  0.8828166666666666  1.0000
  Al  Al6       1.0  0.35710000000000003  0.01219999999999999  0.049483333333333324  1.0000
  Al  Al7       1.0  0.6771  0.6666  0.37827  1.0000
  Al  Al8       1.0  0.010500000000000037  0.6771  0.5449366666666666  1.0000
  Al  Al9       1.0  0.33340000000000003  0.010500000000000067  0.7116033333333334  1.0000
  Al  Al10      1.0  0.32289999999999996  0.3334000000000001  0.87827  1.0000
  Al  Al11      1.0  0.9895  0.32289999999999996  0.044936666666666625  1.0000
  Al  Al12      1.0  0.6666  0.9894999999999999  0.21160333333333337  1.0000
  S   S1        1.0  0.3232  0.335  0.34393  1.0000
  S   S2        1.0  0.9882000000000001  0.3232  0.5105966666666667  1.0000
  S   S3        1.0  0.6650000000000001  0.9882000000000001  0.6772633333333333  1.0000
  S   S4        1.0  0.6768000000000001  0.665  0.8439300000000001  1.0000
  S   S5        1.0  0.011800000000000041  0.6768000000000001  0.010596666666666588  1.0000
  S   S6        1.0  0.335  0.011800000000000033  0.17726333333333333  1.0000
  S   S7        1.0  0.0001999999999999868  0.3353  0.17363  1.0000
  S   S8        1.0  0.6649000000000002  0.0001999999999999868  0.3402966666666667  1.0000
  S   S9        1.0  0.6647000000000001  0.6649  0.5069633333333333  1.0000
  S   S10       1.0  0.9998000000000001  0.6647000000000001  0.67363  1.0000
  S   S11       1.0  0.33510000000000006  0.9998000000000001  0.8402966666666667  1.0000
  S   S12       1.0  0.3353  0.3351  0.006963333333333432  1.0000
  S   S13       1.0  0.6625000000000001  0.6682000000000001  0.17246000000000003  1.0000
  S   S14       1.0  0.9943000000000001  0.6625000000000001  0.3391266666666667  1.0000
  S   S15       1.0  0.3318  0.9943000000000001  0.5057933333333334  1.0000
  S   S16       1.0  0.3374999999999999  0.3317999999999999  0.6724600000000001  1.0000
  S   S17       1.0  0.005700000000000063  0.33749999999999997  0.8391266666666667  1.0000
  S   S18       1.0  0.6682000000000002  0.005700000000000039  0.005793333333333317  1.0000
