data_image0
_chemical_formula_structural       I18Cu30Se24P24
_chemical_formula_sum              "I18 Cu30 Se24 P24"
_cell_length_a       19.601
_cell_length_b       19.601
_cell_length_c       6.7196
_cell_angle_alpha    90.0
_cell_angle_beta     90.0
_cell_angle_gamma    119.99999999999999

_space_group_name_H-M_alt    "P 1"
_space_group_IT_number       1

loop_
  _space_group_symop_operation_xyz
  'x, y, z'

loop_
  _atom_site_type_symbol
  _atom_site_label
  _atom_site_symmetry_multiplicity
  _atom_site_fract_x
  _atom_site_fract_y
  _atom_site_fract_z
  _atom_site_occupancy
  I   I1        1.0  0.12944  0.12944  0.70107  1.0000
  I   I2        1.0  0.0  0.12944  0.2010700000000001  1.0000
  I   I3        1.0  0.87056  0.0  0.70107  1.0000
  I   I4        1.0  0.87056  0.87056  0.2010700000000001  1.0000
  I   I5        1.0  0.0  0.87056  0.70107  1.0000
  I   I6        1.0  0.12944  0.0  0.2010700000000001  1.0000
  I   I7        1.0  0.20185  0.53358  0.0875  1.0000
  I   I8        1.0  0.6682699999999999  0.20185  0.5875  1.0000
  I   I9        1.0  0.5335800000000002  0.20185  0.0875  1.0000
  I   I10       1.0  0.46641999999999995  0.6682699999999999  0.0875  1.0000
  I   I11       1.0  0.3317300000000001  0.53358  0.5875  1.0000
  I   I12       1.0  0.79815  0.46641999999999995  0.5875  1.0000
  I   I13       1.0  0.79815  0.3317300000000001  0.0875  1.0000
  I   I14       1.0  0.33173000000000014  0.7981500000000001  0.0875  1.0000
  I   I15       1.0  0.46642  0.7981500000000001  0.5875  1.0000
  I   I16       1.0  0.5335800000000002  0.3317300000000001  0.5875  1.0000
  I   I17       1.0  0.6682699999999999  0.46641999999999995  0.0875  1.0000
  I   I18       1.0  0.20185  0.6682699999999999  0.5875  1.0000
  Cu  Cu1       1.0  0.12355  0.12355000000000001  0.3135  1.0000
  Cu  Cu2       1.0  0.0  0.12355000000000001  0.8135000000000001  1.0000
  Cu  Cu3       1.0  0.8764500000000001  0.0  0.3135  1.0000
  Cu  Cu4       1.0  0.8764500000000001  0.8764500000000001  0.8135000000000001  1.0000
  Cu  Cu5       1.0  6.023876532192693e-17  0.8764500000000001  0.3135  1.0000
  Cu  Cu6       1.0  0.12355000000000002  1.3877787807814457e-17  0.8135000000000001  1.0000
  Cu  Cu7       1.0  0.336  0.5417  0.1826  0.5550
  Cu  Cu8       1.0  0.7943  0.336  0.6826  0.5550
  Cu  Cu9       1.0  0.5417  0.336  0.1826  0.5550
  Cu  Cu10      1.0  0.45830000000000004  0.7943  0.1826  0.5550
  Cu  Cu11      1.0  0.20569999999999994  0.5417  0.6826  0.5550
  Cu  Cu12      1.0  0.6639999999999999  0.45830000000000004  0.6826  0.5550
  Cu  Cu13      1.0  0.6639999999999999  0.20569999999999994  0.1826  0.5550
  Cu  Cu14      1.0  0.20569999999999994  0.6639999999999999  0.1826  0.5550
  Cu  Cu15      1.0  0.45830000000000004  0.6639999999999999  0.6826  0.5550
  Cu  Cu16      1.0  0.5417  0.20569999999999994  0.6826  0.5550
  Cu  Cu17      1.0  0.7943  0.45830000000000004  0.1826  0.5550
  Cu  Cu18      1.0  0.336  0.7943  0.6826  0.5550
  Cu  Cu19      1.0  0.3350000000000001  0.5413  0.9948000000000001  0.4450
  Cu  Cu20      1.0  0.7937000000000001  0.3350000000000001  0.4948  0.4450
  Cu  Cu21      1.0  0.5413  0.3350000000000001  0.9948000000000001  0.4450
  Cu  Cu22      1.0  0.4587  0.7937000000000001  0.9948000000000001  0.4450
  Cu  Cu23      1.0  0.20629999999999993  0.5413  0.4948  0.4450
  Cu  Cu24      1.0  0.665  0.45870000000000005  0.4948  0.4450
  Cu  Cu25      1.0  0.665  0.20629999999999993  0.9948000000000001  0.4450
  Cu  Cu26      1.0  0.20629999999999993  0.6649999999999999  0.9948000000000001  0.4450
  Cu  Cu27      1.0  0.4587  0.6649999999999999  0.4948  0.4450
  Cu  Cu28      1.0  0.5413  0.20629999999999993  0.4948  0.4450
  Cu  Cu29      1.0  0.7937000000000001  0.45870000000000005  0.9948000000000001  0.4450
  Cu  Cu30      1.0  0.3350000000000001  0.7937000000000001  0.4948  0.4450
  Se  Se1       1.0  0.29987  0.29987  0.4847000000000001  1.0000
  Se  Se2       1.0  0.0  0.29987  0.9847000000000002  1.0000
  Se  Se3       1.0  0.7001299999999999  0.0  0.4847000000000001  1.0000
  Se  Se4       1.0  0.7001299999999999  0.7001299999999999  0.9847000000000002  1.0000
  Se  Se5       1.0  0.0  0.7001299999999999  0.4847000000000001  1.0000
  Se  Se6       1.0  0.29987  0.0  0.9847000000000002  1.0000
  Se  Se7       1.0  0.21648000000000003  0.32459  0.05070000000000001  1.0000
  Se  Se8       1.0  0.8918900000000001  0.21648000000000003  0.5507  1.0000
  Se  Se9       1.0  0.32459  0.21648000000000003  0.05070000000000001  1.0000
  Se  Se10      1.0  0.6754100000000001  0.8918900000000001  0.05070000000000001  1.0000
  Se  Se11      1.0  0.10810999999999997  0.32459  0.5507  1.0000
  Se  Se12      1.0  0.78352  0.6754100000000002  0.5507  1.0000
  Se  Se13      1.0  0.78352  0.10810999999999996  0.05070000000000001  1.0000
  Se  Se14      1.0  0.10810999999999997  0.78352  0.05070000000000001  1.0000
  Se  Se15      1.0  0.6754100000000001  0.78352  0.5507  1.0000
  Se  Se16      1.0  0.32459  0.10810999999999996  0.5507  1.0000
  Se  Se17      1.0  0.8918900000000001  0.6754100000000002  0.05070000000000001  1.0000
  Se  Se18      1.0  0.21648000000000003  0.8918900000000001  0.5507  1.0000
  Se  Se19      1.0  0.42058000000000006  0.42058  0.8669  1.0000
  Se  Se20      1.0  7.307978528341995e-17  0.42058000000000006  0.3669  1.0000
  Se  Se21      1.0  0.57942  5.551115123125783e-17  0.8669  1.0000
  Se  Se22      1.0  0.5794199999999999  0.57942  0.3669  1.0000
  Se  Se23      1.0  0.0  0.5794199999999999  0.8669  1.0000
  Se  Se24      1.0  0.42058000000000006  0.0  0.3669  1.0000
  P   P1        1.0  0.2327  0.2327  0.2153  1.0000
  P   P2        1.0  0.0  0.2327  0.7153  1.0000
  P   P3        1.0  0.7673  0.0  0.2153  1.0000
  P   P4        1.0  0.7673  0.7673  0.7153  1.0000
  P   P5        1.0  1.74740143447333e-17  0.7673  0.2153  1.0000
  P   P6        1.0  0.2327  0.0  0.7153  1.0000
  P   P7        1.0  0.3382  0.43110000000000004  0.08790000000000002  1.0000
  P   P8        1.0  0.9071000000000001  0.3382  0.5879  1.0000
  P   P9        1.0  0.43110000000000004  0.3382  0.08790000000000002  1.0000
  P   P10       1.0  0.5689  0.9071  0.08790000000000002  1.0000
  P   P11       1.0  0.09290000000000005  0.43110000000000004  0.5879  1.0000
  P   P12       1.0  0.6617999999999999  0.5689  0.5879  1.0000
  P   P13       1.0  0.6617999999999999  0.09290000000000004  0.08790000000000002  1.0000
  P   P14       1.0  0.09290000000000002  0.6617999999999999  0.08790000000000002  1.0000
  P   P15       1.0  0.5689  0.6617999999999999  0.5879  1.0000
  P   P16       1.0  0.43110000000000004  0.09290000000000004  0.5879  1.0000
  P   P17       1.0  0.9071000000000001  0.5689  0.08790000000000002  1.0000
  P   P18       1.0  0.3382  0.9071  0.5879  1.0000
  P   P19       1.0  0.39780000000000004  0.3978000000000001  0.3218  1.0000
  P   P20       1.0  1.769900428904306e-17  0.3978000000000001  0.8218  1.0000
  P   P21       1.0  0.6022000000000001  0.0  0.3218  1.0000
  P   P22       1.0  0.6022000000000001  0.6022  0.8218  1.0000
  P   P23       1.0  1.0056571326585844e-17  0.6022  0.3218  1.0000
  P   P24       1.0  0.39780000000000004  0.0  0.8218  1.0000
