data_image0
_chemical_formula_structural       Zn8V4P8O36
_chemical_formula_sum              "Zn8 V4 P8 O36"
_cell_length_a       8.9227
_cell_length_b       8.9227
_cell_length_c       9.039
_cell_angle_alpha    90.0
_cell_angle_beta     90.0
_cell_angle_gamma    90.0

_space_group_name_H-M_alt    "P 1"
_space_group_IT_number       1

loop_
  _space_group_symop_operation_xyz
  'x, y, z'

loop_
  _atom_site_type_symbol
  _atom_site_label
  _atom_site_symmetry_multiplicity
  _atom_site_fract_x
  _atom_site_fract_y
  _atom_site_fract_z
  _atom_site_occupancy
  Zn  Zn1       1.0  0.6181  0.11810000000000001  0.26348  1.0000
  Zn  Zn2       1.0  0.8819  0.6181  0.26348  1.0000
  Zn  Zn3       1.0  0.3819  0.8819  0.26348  1.0000
  Zn  Zn4       1.0  0.11810000000000001  0.3819  0.26348  1.0000
  Zn  Zn5       1.0  0.3819  0.11810000000000001  0.7634799999999998  1.0000
  Zn  Zn6       1.0  0.8819  0.3819  0.7634799999999998  1.0000
  Zn  Zn7       1.0  0.6181  0.8819  0.7634799999999998  1.0000
  Zn  Zn8       1.0  0.11810000000000001  0.6181  0.7634799999999998  1.0000
  V   V1        1.0  0.0  0.0  0.10109999999999997  1.0000
  V   V2        1.0  0.0  0.0  0.6011  1.0000
  V   V3        1.0  0.5  0.5  0.6011  1.0000
  V   V4        1.0  0.5  0.5  0.10109999999999997  1.0000
  P   P1        1.0  0.3067  0.19340000000000004  0.1204  1.0000
  P   P2        1.0  0.8066  0.3067  0.1204  1.0000
  P   P3        1.0  0.6933  0.8066  0.1204  1.0000
  P   P4        1.0  0.19340000000000004  0.6933  0.1204  1.0000
  P   P5        1.0  0.6933  0.19340000000000004  0.6204  1.0000
  P   P6        1.0  0.8066  0.6933  0.6204  1.0000
  P   P7        1.0  0.3067  0.8066  0.6204  1.0000
  P   P8        1.0  0.19340000000000004  0.3067  0.6204  1.0000
  O   O1        1.0  0.8271  0.1355  0.1548  1.0000
  O   O2        1.0  0.8645  0.8271  0.1548  1.0000
  O   O3        1.0  0.17290000000000005  0.8645  0.1548  1.0000
  O   O4        1.0  0.1355  0.17290000000000005  0.1548  1.0000
  O   O5        1.0  0.17290000000000005  0.1355  0.6547999999999999  1.0000
  O   O6        1.0  0.8645  0.17290000000000005  0.6547999999999999  1.0000
  O   O7        1.0  0.8271  0.8645  0.6547999999999999  1.0000
  O   O8        1.0  0.1355  0.8271  0.6547999999999999  1.0000
  O   O9        1.0  0.32709999999999995  0.6355  0.6547999999999999  1.0000
  O   O10       1.0  0.3645  0.32709999999999995  0.6547999999999999  1.0000
  O   O11       1.0  0.6729  0.3645  0.6547999999999999  1.0000
  O   O12       1.0  0.6355  0.6729  0.6547999999999999  1.0000
  O   O13       1.0  0.6729  0.6355  0.1548  1.0000
  O   O14       1.0  0.3645  0.6729  0.1548  1.0000
  O   O15       1.0  0.32709999999999995  0.3645  0.1548  1.0000
  O   O16       1.0  0.6355  0.32709999999999995  0.1548  1.0000
  O   O17       1.0  0.6518  0.15180000000000005  0.469  1.0000
  O   O18       1.0  0.8482000000000001  0.6518  0.469  1.0000
  O   O19       1.0  0.3482  0.8482000000000001  0.469  1.0000
  O   O20       1.0  0.15180000000000005  0.3482  0.469  1.0000
  O   O21       1.0  0.3482  0.15180000000000005  0.9689999999999999  1.0000
  O   O22       1.0  0.8482000000000001  0.3482  0.9689999999999999  1.0000
  O   O23       1.0  0.6518  0.8482000000000001  0.9689999999999999  1.0000
  O   O24       1.0  0.15180000000000005  0.6518  0.9689999999999999  1.0000
  O   O25       1.0  0.0  0.0  0.4275  1.0000
  O   O26       1.0  0.0  0.0  0.9274999999999999  1.0000
  O   O27       1.0  0.5  0.5  0.9274999999999999  1.0000
  O   O28       1.0  0.5  0.5  0.4275  1.0000
  O   O29       1.0  0.39600000000000013  0.104  0.23689999999999997  1.0000
  O   O30       1.0  0.896  0.39600000000000013  0.23689999999999997  1.0000
  O   O31       1.0  0.604  0.896  0.23689999999999997  1.0000
  O   O32       1.0  0.104  0.604  0.23689999999999997  1.0000
  O   O33       1.0  0.604  0.104  0.7368999999999999  1.0000
  O   O34       1.0  0.896  0.604  0.7368999999999999  1.0000
  O   O35       1.0  0.39600000000000013  0.896  0.7368999999999999  1.0000
  O   O36       1.0  0.104  0.39600000000000013  0.7368999999999999  1.0000
