data_image0
_chemical_formula_structural       Ni8Ta4O18
_chemical_formula_sum              "Ni8 Ta4 O18"
_cell_length_a       5.135
_cell_length_b       5.135
_cell_length_c       14.0858
_cell_angle_alpha    90.0
_cell_angle_beta     90.0
_cell_angle_gamma    119.99999999999999

_space_group_name_H-M_alt    "P 1"
_space_group_IT_number       1

loop_
  _space_group_symop_operation_xyz
  'x, y, z'

loop_
  _atom_site_type_symbol
  _atom_site_label
  _atom_site_symmetry_multiplicity
  _atom_site_fract_x
  _atom_site_fract_y
  _atom_site_fract_z
  _atom_site_occupancy
  Ni  Ni1       1.0  0.3333000000000001  0.6667000000000002  0.0123  0.6400
  Ni  Ni2       1.0  0.3333  0.6667000000000001  0.5123  0.6400
  Ni  Ni3       1.0  0.6667  0.33329999999999993  0.9877000000000001  0.6400
  Ni  Ni4       1.0  0.6667000000000001  0.3333000000000001  0.4877000000000001  0.6400
  Ni  Ni5       1.0  0.3333000000000001  0.6667000000000002  0.3075000000000001  0.6400
  Ni  Ni6       1.0  0.3333  0.6667000000000001  0.8075000000000002  0.6400
  Ni  Ni7       1.0  0.6667  0.33329999999999993  0.6925  0.6400
  Ni  Ni8       1.0  0.6667000000000001  0.3333000000000001  0.19249999999999995  0.6400
  Ta  Ta1       1.0  0.0  0.0  0.3583000000000001  1.0000
  Ta  Ta2       1.0  0.0  0.0  0.8583000000000002  1.0000
  Ta  Ta3       1.0  0.0  0.0  0.6417  1.0000
  Ta  Ta4       1.0  0.0  0.0  0.14169999999999994  1.0000
  O   O1        1.0  0.344  0.321  0.08500000000000003  1.0000
  O   O2        1.0  0.679  0.022999999999999965  0.08500000000000003  1.0000
  O   O3        1.0  0.977  0.6560000000000001  0.08500000000000003  1.0000
  O   O4        1.0  0.679  0.6560000000000001  0.585  1.0000
  O   O5        1.0  0.344  0.022999999999999965  0.585  1.0000
  O   O6        1.0  0.977  0.321  0.585  1.0000
  O   O7        1.0  0.656  0.679  0.915  1.0000
  O   O8        1.0  0.321  0.9770000000000002  0.915  1.0000
  O   O9        1.0  0.022999999999999993  0.34400000000000003  0.915  1.0000
  O   O10       1.0  0.321  0.34400000000000003  0.41500000000000004  1.0000
  O   O11       1.0  0.6560000000000001  0.9770000000000002  0.41500000000000004  1.0000
  O   O12       1.0  0.022999999999999972  0.679  0.41500000000000004  1.0000
  O   O13       1.0  0.288  0.0  0.25  1.0000
  O   O14       1.0  8.814760022194323e-19  0.288  0.25  1.0000
  O   O15       1.0  0.712  0.712  0.25  1.0000
  O   O16       1.0  1.4604351483423586e-17  0.712  0.7500000000000001  1.0000
  O   O17       1.0  0.288  0.288  0.7500000000000001  1.0000
  O   O18       1.0  0.712  0.0  0.7500000000000001  1.0000
  Zn  Zn1       1.0  0.3333000000000001  0.6667000000000002  0.0123  0.3600
  Zn  Zn2       1.0  0.3333  0.6667000000000001  0.5123  0.3600
  Zn  Zn3       1.0  0.6667  0.33329999999999993  0.9877000000000001  0.3600
  Zn  Zn4       1.0  0.6667000000000001  0.3333000000000001  0.4877000000000001  0.3600
  Zn  Zn5       1.0  0.3333000000000001  0.6667000000000002  0.3075000000000001  0.3600
  Zn  Zn6       1.0  0.3333  0.6667000000000001  0.8075000000000002  0.3600
  Zn  Zn7       1.0  0.6667  0.33329999999999993  0.6925  0.3600
  Zn  Zn8       1.0  0.6667000000000001  0.3333000000000001  0.19249999999999995  0.3600
