data_image0
_chemical_formula_structural       Ag3MnKN6C6
_chemical_formula_sum              "Ag3 Mn1 K1 N6 C6"
_cell_length_a       6.8214
_cell_length_b       6.821399999999999
_cell_length_c       8.2353
_cell_angle_alpha    90.0
_cell_angle_beta     90.0
_cell_angle_gamma    119.99999999999999

_space_group_name_H-M_alt    "P 1"
_space_group_IT_number       1

loop_
  _space_group_symop_operation_xyz
  'x, y, z'

loop_
  _atom_site_type_symbol
  _atom_site_label
  _atom_site_symmetry_multiplicity
  _atom_site_fract_x
  _atom_site_fract_y
  _atom_site_fract_z
  _atom_site_occupancy
  Ag  Ag1       1.0  0.50481  0.00963  0.5  1.0000
  Ag  Ag2       1.0  0.99037  0.49518  0.5  1.0000
  Ag  Ag3       1.0  0.50482  0.4951900000000001  0.5  1.0000
  Mn  Mn1       1.0  0.0  0.0  0.0  1.0000
  K   K1        1.0  0.3333  0.6667  0.0  1.0000
  N   N1        1.0  0.25800000000000006  0.9963000000000001  0.16549999999999995  1.0000
  N   N2        1.0  0.0037000000000000067  0.2617  0.16549999999999995  1.0000
  N   N3        1.0  0.7382999999999998  0.742  0.16549999999999995  1.0000
  N   N4        1.0  0.258  0.2617  0.8344999999999999  1.0000
  N   N5        1.0  0.0037000000000000214  0.742  0.8344999999999999  1.0000
  N   N6        1.0  0.7382999999999998  0.9963000000000001  0.8344999999999999  1.0000
  C   C1        1.0  0.3486999999999999  0.0041  0.2835  1.0000
  C   C2        1.0  0.9958999999999999  0.34459999999999996  0.2835  1.0000
  C   C3        1.0  0.6554  0.6513  0.2835  1.0000
  C   C4        1.0  0.3486999999999999  0.34459999999999996  0.7165  1.0000
  C   C5        1.0  0.9958999999999999  0.6513  0.7165  1.0000
  C   C6        1.0  0.6554  0.0041  0.7165  1.0000
