data_image0
_chemical_formula_structural       La16Na16Ga64Se128
_chemical_formula_sum              "La16 Na16 Ga64 Se128"
_cell_length_a       21.1979
_cell_length_b       21.1625
_cell_length_c       12.7216
_cell_angle_alpha    90.0
_cell_angle_beta     90.0
_cell_angle_gamma    90.0

_space_group_name_H-M_alt    "P 1"
_space_group_IT_number       1

loop_
  _space_group_symop_operation_xyz
  'x, y, z'

loop_
  _atom_site_type_symbol
  _atom_site_label
  _atom_site_symmetry_multiplicity
  _atom_site_fract_x
  _atom_site_fract_y
  _atom_site_fract_z
  _atom_site_occupancy
  La  La1       1.0  0.125  0.125  0.12499999999999997  1.0000
  La  La2       1.0  0.625  0.625  0.12499999999999997  1.0000
  La  La3       1.0  0.625  0.125  0.625  1.0000
  La  La4       1.0  0.125  0.625  0.625  1.0000
  La  La5       1.0  0.875  0.8750000000000001  0.875  1.0000
  La  La6       1.0  0.375  0.375  0.875  1.0000
  La  La7       1.0  0.375  0.8750000000000001  0.37499999999999994  1.0000
  La  La8       1.0  0.875  0.375  0.37499999999999994  1.0000
  La  La9       1.0  0.125  0.125  0.625  1.0000
  La  La10      1.0  0.625  0.625  0.625  1.0000
  La  La11      1.0  0.625  0.125  0.12499999999999999  1.0000
  La  La12      1.0  0.125  0.625  0.12499999999999999  1.0000
  La  La13      1.0  0.875  0.8750000000000001  0.37499999999999994  1.0000
  La  La14      1.0  0.375  0.375  0.37499999999999994  1.0000
  La  La15      1.0  0.375  0.8750000000000001  0.875  1.0000
  La  La16      1.0  0.875  0.375  0.875  1.0000
  Na  Na1       1.0  0.378  0.125  0.12499999999999997  1.0000
  Na  Na2       1.0  0.372  0.625  0.12499999999999997  1.0000
  Na  Na3       1.0  0.372  0.125  0.625  1.0000
  Na  Na4       1.0  0.378  0.625  0.625  1.0000
  Na  Na5       1.0  0.8780000000000001  0.125  0.625  1.0000
  Na  Na6       1.0  0.8720000000000001  0.625  0.625  1.0000
  Na  Na7       1.0  0.8720000000000001  0.125  0.12499999999999999  1.0000
  Na  Na8       1.0  0.8780000000000001  0.625  0.12499999999999999  1.0000
  Na  Na9       1.0  0.622  0.8750000000000001  0.875  1.0000
  Na  Na10      1.0  0.628  0.375  0.875  1.0000
  Na  Na11      1.0  0.628  0.8750000000000001  0.37499999999999994  1.0000
  Na  Na12      1.0  0.622  0.375  0.37499999999999994  1.0000
  Na  Na13      1.0  0.122  0.8750000000000001  0.37499999999999994  1.0000
  Na  Na14      1.0  0.1280000000000001  0.375  0.37499999999999994  1.0000
  Na  Na15      1.0  0.1280000000000001  0.8750000000000001  0.875  1.0000
  Na  Na16      1.0  0.122  0.375  0.875  1.0000
  Ga  Ga1       1.0  0.7523  0.4898  0.12572  1.0000
  Ga  Ga2       1.0  0.9977  0.2602  0.12572  1.0000
  Ga  Ga3       1.0  0.9977  0.4898  0.62428  1.0000
  Ga  Ga4       1.0  0.7523  0.2602  0.62428  1.0000
  Ga  Ga5       1.0  0.7523  0.9898000000000001  0.62572  1.0000
  Ga  Ga6       1.0  0.9977  0.7602000000000001  0.62572  1.0000
  Ga  Ga7       1.0  0.9977  0.9898000000000001  0.12427999999999999  1.0000
  Ga  Ga8       1.0  0.7523  0.7602000000000001  0.12427999999999999  1.0000
  Ga  Ga9       1.0  0.25229999999999997  0.4898  0.62572  1.0000
  Ga  Ga10      1.0  0.49770000000000003  0.2602  0.62572  1.0000
  Ga  Ga11      1.0  0.49770000000000003  0.4898  0.12427999999999999  1.0000
  Ga  Ga12      1.0  0.25229999999999997  0.2602  0.12427999999999999  1.0000
  Ga  Ga13      1.0  0.25229999999999997  0.9898000000000001  0.12572  1.0000
  Ga  Ga14      1.0  0.49770000000000003  0.7602000000000001  0.12572  1.0000
  Ga  Ga15      1.0  0.49770000000000003  0.9898000000000001  0.62428  1.0000
  Ga  Ga16      1.0  0.25229999999999997  0.7602000000000001  0.62428  1.0000
  Ga  Ga17      1.0  0.2477  0.5102  0.8742799999999998  1.0000
  Ga  Ga18      1.0  0.0022999999999999687  0.7398  0.8742799999999998  1.0000
  Ga  Ga19      1.0  0.0022999999999999687  0.5102  0.37571999999999994  1.0000
  Ga  Ga20      1.0  0.2477  0.7398  0.37571999999999994  1.0000
  Ga  Ga21      1.0  0.2477  0.010199999999999987  0.37427999999999995  1.0000
  Ga  Ga22      1.0  0.0022999999999999687  0.23980000000000004  0.37427999999999995  1.0000
  Ga  Ga23      1.0  0.0022999999999999687  0.010199999999999987  0.8757199999999999  1.0000
  Ga  Ga24      1.0  0.2477  0.23980000000000004  0.8757199999999999  1.0000
  Ga  Ga25      1.0  0.7477  0.5102  0.37427999999999995  1.0000
  Ga  Ga26      1.0  0.5023  0.7398  0.37427999999999995  1.0000
  Ga  Ga27      1.0  0.5023  0.5102  0.8757199999999999  1.0000
  Ga  Ga28      1.0  0.7477  0.7398  0.8757199999999999  1.0000
  Ga  Ga29      1.0  0.7477  0.010199999999999987  0.8742799999999998  1.0000
  Ga  Ga30      1.0  0.5023  0.23980000000000004  0.8742799999999998  1.0000
  Ga  Ga31      1.0  0.5023  0.010199999999999987  0.37571999999999994  1.0000
  Ga  Ga32      1.0  0.7477  0.23980000000000004  0.37571999999999994  1.0000
  Ga  Ga33      1.0  0.7498  0.6949800000000002  0.41591999999999996  1.0000
  Ga  Ga34      1.0  0.00019999999999997797  0.05501999999999985  0.41591999999999996  1.0000
  Ga  Ga35      1.0  0.00019999999999997797  0.6949800000000002  0.33408000000000004  1.0000
  Ga  Ga36      1.0  0.7498  0.05501999999999985  0.33408000000000004  1.0000
  Ga  Ga37      1.0  0.7498  0.19498000000000018  0.91592  1.0000
  Ga  Ga38      1.0  0.00019999999999997797  0.5550199999999998  0.91592  1.0000
  Ga  Ga39      1.0  0.00019999999999997797  0.19498000000000018  0.8340799999999999  1.0000
  Ga  Ga40      1.0  0.7498  0.5550199999999998  0.8340799999999999  1.0000
  Ga  Ga41      1.0  0.24980000000000005  0.6949800000000002  0.91592  1.0000
  Ga  Ga42      1.0  0.5002  0.05501999999999985  0.91592  1.0000
  Ga  Ga43      1.0  0.5002  0.6949800000000002  0.8340799999999999  1.0000
  Ga  Ga44      1.0  0.24980000000000005  0.05501999999999985  0.8340799999999999  1.0000
  Ga  Ga45      1.0  0.24980000000000005  0.19498000000000018  0.41591999999999996  1.0000
  Ga  Ga46      1.0  0.5002  0.5550199999999998  0.41591999999999996  1.0000
  Ga  Ga47      1.0  0.5002  0.19498000000000018  0.33408000000000004  1.0000
  Ga  Ga48      1.0  0.24980000000000005  0.5550199999999998  0.33408000000000004  1.0000
  Ga  Ga49      1.0  0.2502  0.30501999999999985  0.5840799999999999  1.0000
  Ga  Ga50      1.0  0.9998  0.9449800000000003  0.5840799999999999  1.0000
  Ga  Ga51      1.0  0.9998  0.30501999999999985  0.6659199999999998  1.0000
  Ga  Ga52      1.0  0.2502  0.9449800000000003  0.6659199999999998  1.0000
  Ga  Ga53      1.0  0.2502  0.80502  0.08408000000000003  1.0000
  Ga  Ga54      1.0  0.9998  0.4449800000000002  0.08408000000000003  1.0000
  Ga  Ga55      1.0  0.9998  0.80502  0.16591999999999982  1.0000
  Ga  Ga56      1.0  0.2502  0.4449800000000002  0.16591999999999982  1.0000
  Ga  Ga57      1.0  0.7502  0.30501999999999985  0.08408000000000003  1.0000
  Ga  Ga58      1.0  0.4998  0.9449800000000003  0.08408000000000003  1.0000
  Ga  Ga59      1.0  0.4998  0.30501999999999985  0.16591999999999982  1.0000
  Ga  Ga60      1.0  0.7502  0.9449800000000003  0.16591999999999982  1.0000
  Ga  Ga61      1.0  0.7502  0.80502  0.5840799999999999  1.0000
  Ga  Ga62      1.0  0.4998  0.4449800000000002  0.5840799999999999  1.0000
  Ga  Ga63      1.0  0.4998  0.80502  0.6659199999999998  1.0000
  Ga  Ga64      1.0  0.7502  0.4449800000000002  0.6659199999999998  1.0000
  Se  Se1       1.0  0.0016000000000000003  0.5923600000000001  0.24893999999999994  1.0000
  Se  Se2       1.0  0.7484  0.1576399999999999  0.24893999999999994  1.0000
  Se  Se3       1.0  0.7484  0.5923600000000001  0.50106  1.0000
  Se  Se4       1.0  0.0016000000000000003  0.1576399999999999  0.50106  1.0000
  Se  Se5       1.0  0.0016000000000000003  0.09236000000000022  0.7489399999999999  1.0000
  Se  Se6       1.0  0.7484  0.6576399999999999  0.7489399999999999  1.0000
  Se  Se7       1.0  0.7484  0.09236000000000022  0.001060000000000033  1.0000
  Se  Se8       1.0  0.0016000000000000003  0.6576399999999999  0.001060000000000033  1.0000
  Se  Se9       1.0  0.5016  0.5923600000000001  0.7489399999999999  1.0000
  Se  Se10      1.0  0.24839999999999998  0.1576399999999999  0.7489399999999999  1.0000
  Se  Se11      1.0  0.24839999999999998  0.5923600000000001  0.001060000000000033  1.0000
  Se  Se12      1.0  0.5016  0.1576399999999999  0.001060000000000033  1.0000
  Se  Se13      1.0  0.5016  0.09236000000000022  0.24893999999999994  1.0000
  Se  Se14      1.0  0.24839999999999998  0.6576399999999999  0.24893999999999994  1.0000
  Se  Se15      1.0  0.24839999999999998  0.09236000000000022  0.50106  1.0000
  Se  Se16      1.0  0.5016  0.6576399999999999  0.50106  1.0000
  Se  Se17      1.0  0.9984  0.4076399999999999  0.7510600000000001  1.0000
  Se  Se18      1.0  0.2516  0.8423600000000001  0.7510600000000001  1.0000
  Se  Se19      1.0  0.2516  0.4076399999999999  0.49893999999999994  1.0000
  Se  Se20      1.0  0.9984  0.8423600000000001  0.49893999999999994  1.0000
  Se  Se21      1.0  0.9984  0.9076399999999999  0.25106000000000006  1.0000
  Se  Se22      1.0  0.2516  0.3423600000000003  0.25106000000000006  1.0000
  Se  Se23      1.0  0.2516  0.9076399999999999  0.9989399999999998  1.0000
  Se  Se24      1.0  0.9984  0.3423600000000003  0.9989399999999998  1.0000
  Se  Se25      1.0  0.4984  0.4076399999999999  0.25106000000000006  1.0000
  Se  Se26      1.0  0.7516  0.8423600000000001  0.25106000000000006  1.0000
  Se  Se27      1.0  0.7516  0.4076399999999999  0.9989399999999998  1.0000
  Se  Se28      1.0  0.4984  0.8423600000000001  0.9989399999999998  1.0000
  Se  Se29      1.0  0.4984  0.9076399999999999  0.7510600000000001  1.0000
  Se  Se30      1.0  0.7516  0.3423600000000003  0.7510600000000001  1.0000
  Se  Se31      1.0  0.7516  0.9076399999999999  0.49893999999999994  1.0000
  Se  Se32      1.0  0.4984  0.3423600000000003  0.49893999999999994  1.0000
  Se  Se33      1.0  0.75181  0.58347  0.01509  1.0000
  Se  Se34      1.0  0.99819  0.16652999999999996  0.01509  1.0000
  Se  Se35      1.0  0.99819  0.58347  0.7349099999999998  1.0000
  Se  Se36      1.0  0.75181  0.16652999999999996  0.7349099999999998  1.0000
  Se  Se37      1.0  0.75181  0.08347000000000017  0.51509  1.0000
  Se  Se38      1.0  0.99819  0.6665300000000001  0.51509  1.0000
  Se  Se39      1.0  0.99819  0.08347000000000017  0.23490999999999998  1.0000
  Se  Se40      1.0  0.75181  0.6665300000000001  0.23490999999999998  1.0000
  Se  Se41      1.0  0.25180999999999987  0.58347  0.51509  1.0000
  Se  Se42      1.0  0.4981900000000001  0.16652999999999996  0.51509  1.0000
  Se  Se43      1.0  0.4981900000000001  0.58347  0.23490999999999998  1.0000
  Se  Se44      1.0  0.25180999999999987  0.16652999999999996  0.23490999999999998  1.0000
  Se  Se45      1.0  0.25180999999999987  0.08347000000000017  0.01509  1.0000
  Se  Se46      1.0  0.4981900000000001  0.6665300000000001  0.01509  1.0000
  Se  Se47      1.0  0.4981900000000001  0.08347000000000017  0.7349099999999998  1.0000
  Se  Se48      1.0  0.25180999999999987  0.6665300000000001  0.7349099999999998  1.0000
  Se  Se49      1.0  0.24819000000000002  0.41653  0.9849099999999998  1.0000
  Se  Se50      1.0  0.0018099999999998673  0.8334700000000002  0.9849099999999998  1.0000
  Se  Se51      1.0  0.0018099999999998673  0.41653  0.26509  1.0000
  Se  Se52      1.0  0.24819000000000002  0.8334700000000002  0.26509  1.0000
  Se  Se53      1.0  0.24819000000000002  0.9165300000000001  0.48490999999999995  1.0000
  Se  Se54      1.0  0.0018099999999998673  0.33347000000000016  0.48490999999999995  1.0000
  Se  Se55      1.0  0.0018099999999998673  0.9165300000000001  0.7650899999999999  1.0000
  Se  Se56      1.0  0.24819000000000002  0.33347000000000016  0.7650899999999999  1.0000
  Se  Se57      1.0  0.74819  0.41653  0.48490999999999995  1.0000
  Se  Se58      1.0  0.5018099999999999  0.8334700000000002  0.48490999999999995  1.0000
  Se  Se59      1.0  0.5018099999999999  0.41653  0.7650899999999999  1.0000
  Se  Se60      1.0  0.74819  0.8334700000000002  0.7650899999999999  1.0000
  Se  Se61      1.0  0.74819  0.9165300000000001  0.9849099999999998  1.0000
  Se  Se62      1.0  0.5018099999999999  0.33347000000000016  0.9849099999999998  1.0000
  Se  Se63      1.0  0.5018099999999999  0.9165300000000001  0.26509  1.0000
  Se  Se64      1.0  0.74819  0.33347000000000016  0.26509  1.0000
  Se  Se65      1.0  0.5862  0.74879  0.24560999999999997  1.0000
  Se  Se66      1.0  0.16379999999999995  0.0012100000000000444  0.24560999999999997  1.0000
  Se  Se67      1.0  0.16379999999999995  0.74879  0.5043899999999999  1.0000
  Se  Se68      1.0  0.5862  0.0012100000000000444  0.5043899999999999  1.0000
  Se  Se69      1.0  0.5862  0.2487900000000001  0.74561  1.0000
  Se  Se70      1.0  0.16379999999999995  0.5012100000000002  0.74561  1.0000
  Se  Se71      1.0  0.16379999999999995  0.2487900000000001  0.004390000000000033  1.0000
  Se  Se72      1.0  0.5862  0.5012100000000002  0.004390000000000033  1.0000
  Se  Se73      1.0  0.08620000000000005  0.74879  0.74561  1.0000
  Se  Se74      1.0  0.6638  0.0012100000000000444  0.74561  1.0000
  Se  Se75      1.0  0.6638  0.74879  0.004390000000000033  1.0000
  Se  Se76      1.0  0.08620000000000005  0.0012100000000000444  0.004390000000000033  1.0000
  Se  Se77      1.0  0.08620000000000005  0.2487900000000001  0.24560999999999997  1.0000
  Se  Se78      1.0  0.6638  0.5012100000000002  0.24560999999999997  1.0000
  Se  Se79      1.0  0.6638  0.2487900000000001  0.5043899999999999  1.0000
  Se  Se80      1.0  0.08620000000000005  0.5012100000000002  0.5043899999999999  1.0000
  Se  Se81      1.0  0.41379999999999995  0.25121000000000004  0.75439  1.0000
  Se  Se82      1.0  0.8362000000000002  0.99879  0.75439  1.0000
  Se  Se83      1.0  0.8362000000000002  0.25121000000000004  0.49561  1.0000
  Se  Se84      1.0  0.41379999999999995  0.99879  0.49561  1.0000
  Se  Se85      1.0  0.41379999999999995  0.7512100000000002  0.25439  1.0000
  Se  Se86      1.0  0.8362000000000002  0.4987900000000001  0.25439  1.0000
  Se  Se87      1.0  0.8362000000000002  0.7512100000000002  0.9956099999999999  1.0000
  Se  Se88      1.0  0.41379999999999995  0.4987900000000001  0.9956099999999999  1.0000
  Se  Se89      1.0  0.9138000000000001  0.25121000000000004  0.25439  1.0000
  Se  Se90      1.0  0.33620000000000005  0.99879  0.25439  1.0000
  Se  Se91      1.0  0.33620000000000005  0.25121000000000004  0.9956099999999999  1.0000
  Se  Se92      1.0  0.9138000000000001  0.99879  0.9956099999999999  1.0000
  Se  Se93      1.0  0.9138000000000001  0.7512100000000002  0.75439  1.0000
  Se  Se94      1.0  0.33620000000000005  0.4987900000000001  0.75439  1.0000
  Se  Se95      1.0  0.33620000000000005  0.7512100000000002  0.49561  1.0000
  Se  Se96      1.0  0.9138000000000001  0.4987900000000001  0.49561  1.0000
  Se  Se97      1.0  0.91335  0.49871000000000004  0.99849  1.0000
  Se  Se98      1.0  0.83665  0.25129  0.99849  1.0000
  Se  Se99      1.0  0.83665  0.49871000000000004  0.75151  1.0000
  Se  Se100     1.0  0.91335  0.25129  0.75151  1.0000
  Se  Se101     1.0  0.91335  0.99871  0.4984899999999999  1.0000
  Se  Se102     1.0  0.83665  0.75129  0.4984899999999999  1.0000
  Se  Se103     1.0  0.83665  0.99871  0.25150999999999996  1.0000
  Se  Se104     1.0  0.91335  0.75129  0.25150999999999996  1.0000
  Se  Se105     1.0  0.4133499999999999  0.49871000000000004  0.4984899999999999  1.0000
  Se  Se106     1.0  0.33665  0.25129  0.4984899999999999  1.0000
  Se  Se107     1.0  0.33665  0.49871000000000004  0.25150999999999996  1.0000
  Se  Se108     1.0  0.4133499999999999  0.25129  0.25150999999999996  1.0000
  Se  Se109     1.0  0.4133499999999999  0.99871  0.99849  1.0000
  Se  Se110     1.0  0.33665  0.75129  0.99849  1.0000
  Se  Se111     1.0  0.33665  0.99871  0.75151  1.0000
  Se  Se112     1.0  0.4133499999999999  0.75129  0.75151  1.0000
  Se  Se113     1.0  0.08665  0.50129  0.0015100000000000111  1.0000
  Se  Se114     1.0  0.16334999999999988  0.7487100000000001  0.0015100000000000111  1.0000
  Se  Se115     1.0  0.16334999999999988  0.50129  0.24848999999999985  1.0000
  Se  Se116     1.0  0.08665  0.7487100000000001  0.24848999999999985  1.0000
  Se  Se117     1.0  0.08665  0.0012899999999999578  0.50151  1.0000
  Se  Se118     1.0  0.16334999999999988  0.24871  0.50151  1.0000
  Se  Se119     1.0  0.16334999999999988  0.0012899999999999578  0.7484899999999998  1.0000
  Se  Se120     1.0  0.08665  0.24871  0.7484899999999998  1.0000
  Se  Se121     1.0  0.58665  0.50129  0.50151  1.0000
  Se  Se122     1.0  0.6633499999999999  0.7487100000000001  0.50151  1.0000
  Se  Se123     1.0  0.6633499999999999  0.50129  0.7484899999999998  1.0000
  Se  Se124     1.0  0.58665  0.7487100000000001  0.7484899999999998  1.0000
  Se  Se125     1.0  0.58665  0.0012899999999999578  0.0015100000000000111  1.0000
  Se  Se126     1.0  0.6633499999999999  0.24871  0.0015100000000000111  1.0000
  Se  Se127     1.0  0.6633499999999999  0.0012899999999999578  0.24848999999999985  1.0000
  Se  Se128     1.0  0.58665  0.24871  0.24848999999999985  1.0000
