data_image0
_chemical_formula_structural       La8Ni4O16
_chemical_formula_sum              "La8 Ni4 O16"
_cell_length_a       5.468
_cell_length_b       5.535
_cell_length_c       12.547
_cell_angle_alpha    90.0
_cell_angle_beta     90.0
_cell_angle_gamma    90.0

_space_group_name_H-M_alt    "P 1"
_space_group_IT_number       1

loop_
  _space_group_symop_operation_xyz
  'x, y, z'

loop_
  _atom_site_type_symbol
  _atom_site_label
  _atom_site_symmetry_multiplicity
  _atom_site_fract_x
  _atom_site_fract_y
  _atom_site_fract_z
  _atom_site_occupancy
  La  La1       1.0  0.0  0.0  0.3774  1.0000
  La  La2       1.0  0.0  0.0  0.6226  1.0000
  La  La3       1.0  0.0  0.5  0.12259999999999999  1.0000
  La  La4       1.0  0.0  0.5  0.8774  1.0000
  La  La5       1.0  0.5  0.0  0.1367  1.0000
  La  La6       1.0  0.5  0.0  0.8633  1.0000
  La  La7       1.0  0.5  0.5  0.3633  1.0000
  La  La8       1.0  0.5  0.5  0.6367  1.0000
  Ni  Ni1       1.0  0.0  0.0  0.0  1.0000
  Ni  Ni2       1.0  0.0  0.5  0.5  1.0000
  Ni  Ni3       1.0  0.5  0.0  0.5  1.0000
  Ni  Ni4       1.0  0.5  0.5  0.0  1.0000
  O   O1        1.0  0.0  0.0  0.195  1.0000
  O   O2        1.0  0.0  0.0  0.8049999999999999  1.0000
  O   O3        1.0  0.0  0.5  0.305  1.0000
  O   O4        1.0  0.0  0.5  0.6950000000000001  1.0000
  O   O5        1.0  0.5  0.0  0.326  1.0000
  O   O6        1.0  0.5  0.0  0.6739999999999999  1.0000
  O   O7        1.0  0.5  0.5  0.174  1.0000
  O   O8        1.0  0.5  0.5  0.8260000000000001  1.0000
  O   O9        1.0  0.226  0.25  0.007  1.0000
  O   O10       1.0  0.226  0.75  0.993  1.0000
  O   O11       1.0  0.774  0.25  0.493  1.0000
  O   O12       1.0  0.774  0.75  0.507  1.0000
  O   O13       1.0  0.774  0.75  0.007  1.0000
  O   O14       1.0  0.774  0.25  0.993  1.0000
  O   O15       1.0  0.226  0.75  0.493  1.0000
  O   O16       1.0  0.226  0.25  0.507  1.0000
