data_image0
_chemical_formula_structural       Tl8Ca4O16
_chemical_formula_sum              "Tl8 Ca4 O16"
_cell_length_a       3.3255
_cell_length_b       11.022
_cell_length_c       10.479
_cell_angle_alpha    90.0
_cell_angle_beta     90.0
_cell_angle_gamma    90.0

_space_group_name_H-M_alt    "P 1"
_space_group_IT_number       1

loop_
  _space_group_symop_operation_xyz
  'x, y, z'

loop_
  _atom_site_type_symbol
  _atom_site_label
  _atom_site_symmetry_multiplicity
  _atom_site_fract_x
  _atom_site_fract_y
  _atom_site_fract_z
  _atom_site_occupancy
  Tl  Tl1       1.0  0.0  0.3652  0.0725  1.0000
  Tl  Tl2       1.0  0.0  0.6348  0.9275  1.0000
  Tl  Tl3       1.0  0.0  0.3652  0.4275  1.0000
  Tl  Tl4       1.0  0.0  0.6348  0.5725  1.0000
  Tl  Tl5       1.0  0.5  0.8652  0.0725  1.0000
  Tl  Tl6       1.0  0.5  0.13479999999999998  0.9275  1.0000
  Tl  Tl7       1.0  0.5  0.8652  0.4275  1.0000
  Tl  Tl8       1.0  0.5  0.13479999999999998  0.5725  1.0000
  Ca  Ca1       1.0  0.0  0.1076  0.25  1.0000
  Ca  Ca2       1.0  0.0  0.8924  0.75  1.0000
  Ca  Ca3       1.0  0.5  0.6076  0.25  1.0000
  Ca  Ca4       1.0  0.5  0.39239999999999997  0.75  1.0000
  O   O1        1.0  0.0  0.287  0.628  1.0000
  O   O2        1.0  0.0  0.7130000000000001  0.372  1.0000
  O   O3        1.0  0.0  0.287  0.872  1.0000
  O   O4        1.0  0.0  0.7130000000000001  0.1280000000000001  1.0000
  O   O5        1.0  0.5  0.7869999999999998  0.628  1.0000
  O   O6        1.0  0.5  0.21300000000000002  0.372  1.0000
  O   O7        1.0  0.5  0.7869999999999998  0.872  1.0000
  O   O8        1.0  0.5  0.21300000000000002  0.1280000000000001  1.0000
  O   O9        1.0  0.0  0.0  0.0  1.0000
  O   O10       1.0  0.0  0.0  0.5  1.0000
  O   O11       1.0  0.5  0.5  0.0  1.0000
  O   O12       1.0  0.5  0.5  0.5  1.0000
  O   O13       1.0  0.0  0.461  0.25  1.0000
  O   O14       1.0  0.0  0.5389999999999999  0.75  1.0000
  O   O15       1.0  0.5  0.9610000000000001  0.25  1.0000
  O   O16       1.0  0.5  0.03899999999999998  0.75  1.0000
