data_image0
_chemical_formula_structural       Cr3Si6
_chemical_formula_sum              "Cr3 Si6"
_cell_length_a       4.422
_cell_length_b       4.422
_cell_length_c       6.351
_cell_angle_alpha    90.0
_cell_angle_beta     90.0
_cell_angle_gamma    119.99999999999999

_space_group_name_H-M_alt    "P 1"
_space_group_IT_number       1

loop_
  _space_group_symop_operation_xyz
  'x, y, z'

loop_
  _atom_site_type_symbol
  _atom_site_label
  _atom_site_symmetry_multiplicity
  _atom_site_fract_x
  _atom_site_fract_y
  _atom_site_fract_z
  _atom_site_occupancy
  Cr  Cr1       1.0  0.5  0.5  0.8333  1.0000
  Cr  Cr2       1.0  0.5  0.0  0.49996666666666667  1.0000
  Cr  Cr3       1.0  0.0  0.5  0.1666333333333334  1.0000
  Si  Si1       1.0  0.16670000000000001  0.8333  0.8333  1.0000
  Si  Si2       1.0  0.1667  0.33340000000000003  0.49996666666666667  1.0000
  Si  Si3       1.0  0.6666  0.8332999999999999  0.1666333333333334  1.0000
  Si  Si4       1.0  0.8332999999999999  0.1667  0.8333  1.0000
  Si  Si5       1.0  0.8333000000000002  0.6666  0.49996666666666667  1.0000
  Si  Si6       1.0  0.33340000000000003  0.16670000000000001  0.1666333333333334  1.0000
