data_image0
_chemical_formula_structural       Ba4Fe8As8
_chemical_formula_sum              "Ba4 Fe8 As8"
_cell_length_a       5.6139
_cell_length_b       5.5746
_cell_length_c       12.9594
_cell_angle_alpha    90.0
_cell_angle_beta     90.0
_cell_angle_gamma    90.0

_space_group_name_H-M_alt    "P 1"
_space_group_IT_number       1

loop_
  _space_group_symop_operation_xyz
  'x, y, z'

loop_
  _atom_site_type_symbol
  _atom_site_label
  _atom_site_symmetry_multiplicity
  _atom_site_fract_x
  _atom_site_fract_y
  _atom_site_fract_z
  _atom_site_occupancy
  Ba  Ba1       1.0  0.0  0.0  0.0  1.0000
  Ba  Ba2       1.0  0.0  0.5  0.5  1.0000
  Ba  Ba3       1.0  0.5  0.0  0.5  1.0000
  Ba  Ba4       1.0  0.5  0.5  0.0  1.0000
  Fe  Fe1       1.0  0.25  0.25  0.25  1.0000
  Fe  Fe2       1.0  0.75  0.75  0.25  1.0000
  Fe  Fe3       1.0  0.75  0.25  0.75  1.0000
  Fe  Fe4       1.0  0.25  0.75  0.75  1.0000
  Fe  Fe5       1.0  0.75  0.75  0.75  1.0000
  Fe  Fe6       1.0  0.25  0.25  0.75  1.0000
  Fe  Fe7       1.0  0.25  0.75  0.25  1.0000
  Fe  Fe8       1.0  0.75  0.25  0.25  1.0000
  As  As1       1.0  0.0  0.0  0.35417  1.0000
  As  As2       1.0  0.0  0.0  0.64583  1.0000
  As  As3       1.0  0.0  0.5  0.85417  1.0000
  As  As4       1.0  0.0  0.5  0.14583000000000002  1.0000
  As  As5       1.0  0.5  0.0  0.85417  1.0000
  As  As6       1.0  0.5  0.0  0.14583000000000002  1.0000
  As  As7       1.0  0.5  0.5  0.35417  1.0000
  As  As8       1.0  0.5  0.5  0.64583  1.0000
