data_image0
_chemical_formula_structural       N2C6N6C6N24
_chemical_formula_sum              "N32 C12"
_cell_length_a       10.2163
_cell_length_b       10.216299999999999
_cell_length_c       5.9707
_cell_angle_alpha    90.0
_cell_angle_beta     90.0
_cell_angle_gamma    119.99999999999999

_space_group_name_H-M_alt    "P 1"
_space_group_IT_number       1

loop_
  _space_group_symop_operation_xyz
  'x, y, z'

loop_
  _atom_site_type_symbol
  _atom_site_label
  _atom_site_symmetry_multiplicity
  _atom_site_fract_x
  _atom_site_fract_y
  _atom_site_fract_z
  _atom_site_occupancy
  N   N1        1.0  0.6666999999999998  0.3332999999999999  0.25  1.0000
  N   N2        1.0  0.33339999999999986  0.6666999999999997  0.7499999999999999  1.0000
  C   C1        1.0  0.51837  0.3068599999999999  0.25  1.0000
  C   C2        1.0  0.21151000000000003  0.51837  0.7499999999999999  1.0000
  C   C3        1.0  0.6931400000000001  0.21151  0.25  1.0000
  C   C4        1.0  0.48162999999999995  0.6931400000000001  0.7499999999999999  1.0000
  C   C5        1.0  0.7884899999999998  0.48162999999999995  0.25  1.0000
  C   C6        1.0  0.3068599999999999  0.7884899999999998  0.7499999999999999  1.0000
  N   N3        1.0  0.40449  0.16545  0.25  1.0000
  N   N4        1.0  0.23903999999999997  0.40448999999999996  0.7499999999999999  1.0000
  N   N5        1.0  0.83455  0.23904  0.25  1.0000
  N   N6        1.0  0.59551  0.83455  0.7499999999999999  1.0000
  N   N7        1.0  0.76096  0.59551  0.25  1.0000
  N   N8        1.0  0.16545  0.76096  0.7499999999999999  1.0000
  C   C7        1.0  0.44102  0.05677999999999999  0.25  1.0000
  C   C8        1.0  0.38424  0.44102  0.7499999999999999  1.0000
  C   C9        1.0  0.9432200000000001  0.38423999999999997  0.25  1.0000
  C   C10       1.0  0.55898  0.9432200000000001  0.7499999999999999  1.0000
  C   C11       1.0  0.61576  0.55898  0.25  1.0000
  C   C12       1.0  0.05677999999999995  0.6157599999999999  0.7499999999999999  1.0000
  N   N9        1.0  0.49281  0.42253  0.25  1.0000
  N   N10       1.0  0.07028000000000002  0.49281  0.7499999999999999  1.0000
  N   N11       1.0  0.5774699999999999  0.07028  0.25  1.0000
  N   N12       1.0  0.50719  0.5774699999999999  0.7499999999999999  1.0000
  N   N13       1.0  0.92972  0.50719  0.25  1.0000
  N   N14       1.0  0.4225299999999999  0.9297199999999999  0.7499999999999999  1.0000
  N   N15       1.0  0.3229899999999999  0.9063899999999999  0.25  1.0000
  N   N16       1.0  0.41659999999999997  0.32298999999999994  0.7499999999999999  1.0000
  N   N17       1.0  0.09360999999999998  0.41659999999999997  0.25  1.0000
  N   N18       1.0  0.67701  0.09361  0.7499999999999999  1.0000
  N   N19       1.0  0.5834  0.67701  0.25  1.0000
  N   N20       1.0  0.90639  0.5834  0.7499999999999999  1.0000
  N   N21       1.0  0.1953  0.89735  0.25  1.0000
  N   N22       1.0  0.29794999999999994  0.19529999999999997  0.7499999999999999  1.0000
  N   N23       1.0  0.10265  0.29795  0.25  1.0000
  N   N24       1.0  0.8047  0.10265  0.7499999999999999  1.0000
  N   N25       1.0  0.7020500000000001  0.8047  0.25  1.0000
  N   N26       1.0  0.89735  0.7020500000000001  0.7499999999999999  1.0000
  N   N27       1.0  0.07667999999999998  0.87341  0.25  1.0000
  N   N28       1.0  0.20327  0.07667999999999997  0.7499999999999999  1.0000
  N   N29       1.0  0.12658999999999998  0.20326999999999998  0.25  1.0000
  N   N30       1.0  0.92332  0.12659  0.7499999999999999  1.0000
  N   N31       1.0  0.7967299999999999  0.92332  0.25  1.0000
  N   N32       1.0  0.87341  0.7967299999999998  0.7499999999999999  1.0000
