data_image0
_chemical_formula_structural       Mn4Cr4F20
_chemical_formula_sum              "Mn4 Cr4 F20"
_cell_length_a       8.586
_cell_length_b       6.291
_cell_length_c       7.381
_cell_angle_alpha    90.0
_cell_angle_beta     115.46
_cell_angle_gamma    90.0

_space_group_name_H-M_alt    "P 1"
_space_group_IT_number       1

loop_
  _space_group_symop_operation_xyz
  'x, y, z'

loop_
  _atom_site_type_symbol
  _atom_site_label
  _atom_site_symmetry_multiplicity
  _atom_site_fract_x
  _atom_site_fract_y
  _atom_site_fract_z
  _atom_site_occupancy
  Mn  Mn1       1.0  0.0  0.5333  0.25  1.0000
  Mn  Mn2       1.0  0.0  0.46669999999999995  0.75  1.0000
  Mn  Mn3       1.0  0.5  0.03330000000000011  0.25  1.0000
  Mn  Mn4       1.0  0.5  0.9667  0.75  1.0000
  Cr  Cr1       1.0  0.0  0.0  0.0  1.0000
  Cr  Cr2       1.0  0.0  0.0  0.5  1.0000
  Cr  Cr3       1.0  0.5  0.5  0.0  1.0000
  Cr  Cr4       1.0  0.5  0.5  0.5  1.0000
  F   F1        1.0  0.0  0.9202999999999999  0.25  1.0000
  F   F2        1.0  0.0  0.0797000000000001  0.75  1.0000
  F   F3        1.0  0.5  0.4202999999999999  0.25  1.0000
  F   F4        1.0  0.5  0.5797000000000001  0.75  1.0000
  F   F5        1.0  0.015500000000000007  0.7025  0.9666  1.0000
  F   F6        1.0  0.9845000000000002  0.7025  0.5334  1.0000
  F   F7        1.0  0.9845000000000002  0.2975  0.033399999999999985  1.0000
  F   F8        1.0  0.015500000000000007  0.2975  0.4666000000000001  1.0000
  F   F9        1.0  0.5155000000000001  0.2025000000000001  0.9666  1.0000
  F   F10       1.0  0.4845  0.2025000000000001  0.5334  1.0000
  F   F11       1.0  0.4845  0.7975  0.033399999999999985  1.0000
  F   F12       1.0  0.5155000000000001  0.7975  0.4666000000000001  1.0000
  F   F13       1.0  0.7603  0.967  0.8765  1.0000
  F   F14       1.0  0.2397  0.967  0.6234999999999999  1.0000
  F   F15       1.0  0.23970000000000005  0.03300000000000003  0.12350000000000004  1.0000
  F   F16       1.0  0.7603  0.03300000000000003  0.37650000000000006  1.0000
  F   F17       1.0  0.2603  0.4670000000000001  0.8765  1.0000
  F   F18       1.0  0.7397  0.4670000000000001  0.6234999999999999  1.0000
  F   F19       1.0  0.7397  0.533  0.12350000000000004  1.0000
  F   F20       1.0  0.2603  0.533  0.37650000000000006  1.0000
