data_image0
_chemical_formula_structural       Na3Mn3Cr3F18
_chemical_formula_sum              "Na3 Mn3 Cr3 F18"
_cell_length_a       8.993
_cell_length_b       8.993
_cell_length_c       5.003
_cell_angle_alpha    90.0
_cell_angle_beta     90.0
_cell_angle_gamma    119.99999999999999

_space_group_name_H-M_alt    "P 1"
_space_group_IT_number       1

loop_
  _space_group_symop_operation_xyz
  'x, y, z'

loop_
  _atom_site_type_symbol
  _atom_site_label
  _atom_site_symmetry_multiplicity
  _atom_site_fract_x
  _atom_site_fract_y
  _atom_site_fract_z
  _atom_site_occupancy
  Na  Na1       1.0  0.3722  0.0  0.0  1.0000
  Na  Na2       1.0  0.0  0.3721999999999999  0.0  1.0000
  Na  Na3       1.0  0.6278  0.6278  0.0  1.0000
  Mn  Mn1       1.0  0.70258  0.0  0.4999999999999999  1.0000
  Mn  Mn2       1.0  0.0  0.70258  0.4999999999999999  1.0000
  Mn  Mn3       1.0  0.29742  0.29742  0.4999999999999999  1.0000
  Cr  Cr1       1.0  0.0  0.0  0.0  1.0000
  Cr  Cr2       1.0  0.3333  0.6667  0.49708  1.0000
  Cr  Cr3       1.0  0.6667  0.3333  0.50292  1.0000
  F   F1        1.0  0.9031000000000001  0.10329999999999998  0.7798  1.0000
  F   F2        1.0  0.8966999999999999  0.7998000000000002  0.7798  1.0000
  F   F3        1.0  0.20019999999999982  0.09689999999999988  0.7798  1.0000
  F   F4        1.0  0.1032999999999999  0.9031  0.22019999999999992  1.0000
  F   F5        1.0  0.09689999999999986  0.2001999999999998  0.22019999999999992  1.0000
  F   F6        1.0  0.7998000000000002  0.8967  0.22019999999999992  1.0000
  F   F7        1.0  0.539  0.4072999999999999  0.7130999999999998  1.0000
  F   F8        1.0  0.5927  0.1317000000000001  0.7130999999999998  1.0000
  F   F9        1.0  0.8682999999999998  0.46099999999999997  0.7130999999999998  1.0000
  F   F10       1.0  0.40729999999999994  0.539  0.28690000000000015  1.0000
  F   F11       1.0  0.461  0.8682999999999998  0.28690000000000015  1.0000
  F   F12       1.0  0.13170000000000004  0.5926999999999999  0.28690000000000015  1.0000
  F   F13       1.0  0.2347  0.7744  0.7038999999999999  1.0000
  F   F14       1.0  0.2256  0.46030000000000004  0.7038999999999999  1.0000
  F   F15       1.0  0.5397  0.7653  0.7038999999999999  1.0000
  F   F16       1.0  0.7744  0.2347  0.29610000000000014  1.0000
  F   F17       1.0  0.7653  0.5397  0.29610000000000014  1.0000
  F   F18       1.0  0.4603  0.2256  0.29610000000000014  1.0000
