data_image0
_chemical_formula_structural       Hg4S2O8
_chemical_formula_sum              "Hg4 S2 O8"
_cell_length_a       6.2771
_cell_length_b       4.429
_cell_length_c       8.3596
_cell_angle_alpha    90.0
_cell_angle_beta     91.695
_cell_angle_gamma    90.0

_space_group_name_H-M_alt    "P 1"
_space_group_IT_number       1

loop_
  _space_group_symop_operation_xyz
  'x, y, z'

loop_
  _atom_site_type_symbol
  _atom_site_label
  _atom_site_symmetry_multiplicity
  _atom_site_fract_x
  _atom_site_fract_y
  _atom_site_fract_z
  _atom_site_occupancy
  Hg  Hg1       1.0  0.19318  0.052889999999999986  0.9796600000000001  1.0000
  Hg  Hg2       1.0  0.80682  0.052889999999999986  0.52034  1.0000
  Hg  Hg3       1.0  0.80682  0.94711  0.02034  1.0000
  Hg  Hg4       1.0  0.19318  0.94711  0.47966  1.0000
  S   S1        1.0  0.5  0.5674  0.25  1.0000
  S   S2        1.0  0.5  0.4326  0.75  1.0000
  O   O1        1.0  0.6943  0.3900999999999999  0.2586  1.0000
  O   O2        1.0  0.30569999999999997  0.3900999999999999  0.24140000000000003  1.0000
  O   O3        1.0  0.30569999999999997  0.6099000000000001  0.7414000000000001  1.0000
  O   O4        1.0  0.6943  0.6099000000000001  0.7585999999999999  1.0000
  O   O5        1.0  0.5038  0.7719999999999998  0.10580000000000002  1.0000
  O   O6        1.0  0.49620000000000003  0.7719999999999998  0.39420000000000005  1.0000
  O   O7        1.0  0.49620000000000003  0.22800000000000006  0.8942  1.0000
  O   O8        1.0  0.5038  0.22800000000000006  0.6058000000000001  1.0000
