data_image0
_chemical_formula_structural       KAlS2O8
_chemical_formula_sum              "K1 Al1 S2 O8"
_cell_length_a       4.706
_cell_length_b       4.706
_cell_length_c       7.96
_cell_angle_alpha    90.0
_cell_angle_beta     90.0
_cell_angle_gamma    119.99999999999999

_space_group_name_H-M_alt    "P 1"
_space_group_IT_number       1

loop_
  _space_group_symop_operation_xyz
  'x, y, z'

loop_
  _atom_site_type_symbol
  _atom_site_label
  _atom_site_symmetry_multiplicity
  _atom_site_fract_x
  _atom_site_fract_y
  _atom_site_fract_z
  _atom_site_occupancy
  K   K1        1.0  0.0  0.0  0.0  1.0000
  Al  Al1       1.0  0.0  0.0  0.4999999999999999  1.0000
  S   S1        1.0  0.3332999999999999  0.6666999999999997  0.22199999999999995  1.0000
  S   S2        1.0  0.6666999999999997  0.33329999999999993  0.778  1.0000
  O   O1        1.0  0.3332999999999999  0.6666999999999997  0.016  1.0000
  O   O2        1.0  0.6666999999999997  0.33329999999999993  0.9839999999999999  1.0000
  O   O3        1.0  0.328  0.344  0.3169999999999999  1.0000
  O   O4        1.0  0.656  0.984  0.3169999999999999  1.0000
  O   O5        1.0  0.01599999999999992  0.6719999999999998  0.3169999999999999  1.0000
  O   O6        1.0  0.3439999999999999  0.32799999999999996  0.6829999999999999  1.0000
  O   O7        1.0  0.6719999999999999  0.01599999999999996  0.6829999999999999  1.0000
  O   O8        1.0  0.984  0.6559999999999999  0.6829999999999999  1.0000
