data_image0
_chemical_formula_structural       Ga80S152
_chemical_formula_sum              "Ga80 S152"
_cell_length_a       35.903
_cell_length_b       18.501
_cell_length_c       21.183
_cell_angle_alpha    90.0
_cell_angle_beta     115.992
_cell_angle_gamma    90.0

_space_group_name_H-M_alt    "P 1"
_space_group_IT_number       1

loop_
  _space_group_symop_operation_xyz
  'x, y, z'

loop_
  _atom_site_type_symbol
  _atom_site_label
  _atom_site_symmetry_multiplicity
  _atom_site_fract_x
  _atom_site_fract_y
  _atom_site_fract_z
  _atom_site_occupancy
  Ga  Ga1       1.0  0.21644  0.71945  0.72332  1.0000
  Ga  Ga2       1.0  0.78356  0.71945  0.77668  1.0000
  Ga  Ga3       1.0  0.71644  0.21945000000000014  0.72332  1.0000
  Ga  Ga4       1.0  0.2835600000000001  0.21945000000000014  0.77668  1.0000
  Ga  Ga5       1.0  0.78356  0.28054999999999997  0.27668000000000004  1.0000
  Ga  Ga6       1.0  0.21644  0.28054999999999997  0.22331999999999996  1.0000
  Ga  Ga7       1.0  0.2835600000000001  0.78055  0.27668000000000004  1.0000
  Ga  Ga8       1.0  0.71644  0.78055  0.22331999999999996  1.0000
  Ga  Ga9       1.0  0.12678  0.59039  0.67555  1.0000
  Ga  Ga10      1.0  0.87322  0.59039  0.8244499999999999  1.0000
  Ga  Ga11      1.0  0.62678  0.09038999999999997  0.67555  1.0000
  Ga  Ga12      1.0  0.37321999999999994  0.09038999999999997  0.8244499999999999  1.0000
  Ga  Ga13      1.0  0.8732200000000001  0.40961  0.32445  1.0000
  Ga  Ga14      1.0  0.12678  0.40961  0.17554999999999987  1.0000
  Ga  Ga15      1.0  0.37322  0.90961  0.32445  1.0000
  Ga  Ga16      1.0  0.62678  0.90961  0.17554999999999987  1.0000
  Ga  Ga17      1.0  0.05054  0.73855  0.57753  1.0000
  Ga  Ga18      1.0  0.94946  0.73855  0.9224699999999999  1.0000
  Ga  Ga19      1.0  0.55054  0.23855000000000004  0.57753  1.0000
  Ga  Ga20      1.0  0.44946  0.23855000000000004  0.9224699999999999  1.0000
  Ga  Ga21      1.0  0.94946  0.26144999999999996  0.42246999999999996  1.0000
  Ga  Ga22      1.0  0.05054  0.26144999999999996  0.07752999999999988  1.0000
  Ga  Ga23      1.0  0.44946  0.76145  0.42246999999999996  1.0000
  Ga  Ga24      1.0  0.55054  0.76145  0.07752999999999988  1.0000
  Ga  Ga25      1.0  0.12749  0.7668599999999999  0.7669  1.0000
  Ga  Ga26      1.0  0.8725100000000002  0.7668599999999999  0.7331  1.0000
  Ga  Ga27      1.0  0.62749  0.2668599999999999  0.7669  1.0000
  Ga  Ga28      1.0  0.37251  0.2668599999999999  0.7331  1.0000
  Ga  Ga29      1.0  0.8725100000000001  0.2331400000000001  0.23309999999999995  1.0000
  Ga  Ga30      1.0  0.12749  0.2331400000000001  0.26690000000000014  1.0000
  Ga  Ga31      1.0  0.37251  0.7331400000000001  0.23309999999999995  1.0000
  Ga  Ga32      1.0  0.62749  0.7331400000000001  0.26690000000000014  1.0000
  Ga  Ga33      1.0  0.13981999999999997  0.69344  0.5323299999999999  1.0000
  Ga  Ga34      1.0  0.8601800000000002  0.69344  0.9676700000000001  1.0000
  Ga  Ga35      1.0  0.6398199999999999  0.19343999999999983  0.5323299999999999  1.0000
  Ga  Ga36      1.0  0.3601800000000001  0.19343999999999983  0.9676700000000001  1.0000
  Ga  Ga37      1.0  0.8601800000000001  0.30656000000000005  0.46767000000000014  1.0000
  Ga  Ga38      1.0  0.13981999999999997  0.30656000000000005  0.03232999999999997  1.0000
  Ga  Ga39      1.0  0.3601800000000001  0.80656  0.46767000000000014  1.0000
  Ga  Ga40      1.0  0.6398199999999999  0.80656  0.03232999999999997  1.0000
  Ga  Ga41      1.0  0.14059999999999997  0.8687999999999999  0.6238199999999999  1.0000
  Ga  Ga42      1.0  0.8593999999999999  0.8687999999999999  0.87618  1.0000
  Ga  Ga43      1.0  0.6406000000000001  0.3687999999999998  0.6238199999999999  1.0000
  Ga  Ga44      1.0  0.3594  0.3687999999999998  0.87618  1.0000
  Ga  Ga45      1.0  0.8594  0.1312000000000001  0.37618000000000007  1.0000
  Ga  Ga46      1.0  0.14059999999999997  0.1312000000000001  0.12381999999999982  1.0000
  Ga  Ga47      1.0  0.35940000000000005  0.6312  0.37618000000000007  1.0000
  Ga  Ga48      1.0  0.6406000000000001  0.6312  0.12381999999999982  1.0000
  Ga  Ga49      1.0  0.21116  0.55173  0.63205  1.0000
  Ga  Ga50      1.0  0.7888400000000001  0.55173  0.86795  1.0000
  Ga  Ga51      1.0  0.71116  0.051730000000000054  0.63205  1.0000
  Ga  Ga52      1.0  0.28884  0.051730000000000054  0.86795  1.0000
  Ga  Ga53      1.0  0.78884  0.4482699999999999  0.36795  1.0000
  Ga  Ga54      1.0  0.21116  0.4482699999999999  0.13205  1.0000
  Ga  Ga55      1.0  0.28884  0.94827  0.36795  1.0000
  Ga  Ga56      1.0  0.71116  0.94827  0.13205  1.0000
  Ga  Ga57      1.0  0.04295999999999999  0.64115  0.71811  1.0000
  Ga  Ga58      1.0  0.95704  0.64115  0.78189  1.0000
  Ga  Ga59      1.0  0.54296  0.1411500000000001  0.71811  1.0000
  Ga  Ga60      1.0  0.45704  0.1411500000000001  0.78189  1.0000
  Ga  Ga61      1.0  0.95704  0.35885  0.28189  1.0000
  Ga  Ga62      1.0  0.04295999999999998  0.35885  0.21811  1.0000
  Ga  Ga63      1.0  0.45704  0.85885  0.28189  1.0000
  Ga  Ga64      1.0  0.54296  0.85885  0.21811  1.0000
  Ga  Ga65      1.0  0.21328  0.8906199999999999  0.80449  1.0000
  Ga  Ga66      1.0  0.7867200000000001  0.8906199999999999  0.6955099999999999  1.0000
  Ga  Ga67      1.0  0.71328  0.39061999999999975  0.80449  1.0000
  Ga  Ga68      1.0  0.2867199999999999  0.39061999999999975  0.6955099999999999  1.0000
  Ga  Ga69      1.0  0.7867200000000001  0.10938000000000014  0.19550999999999996  1.0000
  Ga  Ga70      1.0  0.21328  0.10938000000000014  0.3044899999999999  1.0000
  Ga  Ga71      1.0  0.28672000000000003  0.6093800000000001  0.19550999999999996  1.0000
  Ga  Ga72      1.0  0.71328  0.6093800000000001  0.3044899999999999  1.0000
  Ga  Ga73      1.0  0.06740999999999998  0.83368  0.44434999999999997  1.0000
  Ga  Ga74      1.0  0.9325900000000001  0.83368  0.05565000000000003  1.0000
  Ga  Ga75      1.0  0.56741  0.33368  0.44434999999999997  1.0000
  Ga  Ga76      1.0  0.43259000000000003  0.33368  0.05565000000000003  1.0000
  Ga  Ga77      1.0  0.9325900000000001  0.16632000000000002  0.55565  1.0000
  Ga  Ga78      1.0  0.06740999999999996  0.16632000000000002  0.9443499999999999  1.0000
  Ga  Ga79      1.0  0.43259000000000003  0.66632  0.55565  1.0000
  Ga  Ga80      1.0  0.56741  0.66632  0.9443499999999999  1.0000
  S   S1        1.0  0.16874  0.6731  0.7598999999999999  1.0000
  S   S2        1.0  0.83126  0.6731  0.7401000000000001  1.0000
  S   S3        1.0  0.66874  0.17310000000000003  0.7598999999999999  1.0000
  S   S4        1.0  0.33126  0.17310000000000003  0.7401000000000001  1.0000
  S   S5        1.0  0.83126  0.32689999999999997  0.2401000000000001  1.0000
  S   S6        1.0  0.16874  0.32689999999999997  0.2599  1.0000
  S   S7        1.0  0.33126  0.8269  0.2401000000000001  1.0000
  S   S8        1.0  0.66874  0.8269  0.2599  1.0000
  S   S9        1.0  0.09240999999999995  0.8239  0.6588999999999999  1.0000
  S   S10       1.0  0.90759  0.8239  0.8411000000000001  1.0000
  S   S11       1.0  0.59241  0.3239000000000001  0.6588999999999999  1.0000
  S   S12       1.0  0.40759  0.3239000000000001  0.8411000000000001  1.0000
  S   S13       1.0  0.90759  0.17610000000000003  0.3411  1.0000
  S   S14       1.0  0.09240999999999996  0.17610000000000003  0.15890000000000004  1.0000
  S   S15       1.0  0.40759  0.6761  0.3411  1.0000
  S   S16       1.0  0.59241  0.6761  0.15890000000000004  1.0000
  S   S17       1.0  0.09141  0.6464  0.5673  1.0000
  S   S18       1.0  0.90859  0.6464  0.9327  1.0000
  S   S19       1.0  0.59141  0.14639999999999986  0.5673  1.0000
  S   S20       1.0  0.40859  0.14639999999999986  0.9327  1.0000
  S   S21       1.0  0.90859  0.3536  0.4326999999999999  1.0000
  S   S22       1.0  0.09141  0.3536  0.06729999999999992  1.0000
  S   S23       1.0  0.40858999999999995  0.8536  0.4326999999999999  1.0000
  S   S24       1.0  0.59141  0.8536  0.06729999999999992  1.0000
  S   S25       1.0  0.18166  0.7760999999999999  0.6149  1.0000
  S   S26       1.0  0.8183400000000001  0.7760999999999999  0.8850999999999999  1.0000
  S   S27       1.0  0.6816599999999999  0.2761  0.6149  1.0000
  S   S28       1.0  0.31833999999999996  0.2761  0.8850999999999999  1.0000
  S   S29       1.0  0.8183400000000002  0.22390000000000007  0.3851  1.0000
  S   S30       1.0  0.18166  0.22390000000000007  0.1149  1.0000
  S   S31       1.0  0.31834  0.7239000000000001  0.3851  1.0000
  S   S32       1.0  0.6816599999999999  0.7239000000000001  0.1149  1.0000
  S   S33       1.0  0.1801899999999999  0.952  0.7002999999999998  1.0000
  S   S34       1.0  0.8198100000000001  0.952  0.7997000000000001  1.0000
  S   S35       1.0  0.68019  0.4519999999999999  0.7002999999999998  1.0000
  S   S36       1.0  0.31981000000000004  0.4519999999999999  0.7997000000000001  1.0000
  S   S37       1.0  0.8198100000000001  0.04800000000000004  0.2997  1.0000
  S   S38       1.0  0.18018999999999996  0.04800000000000004  0.20029999999999992  1.0000
  S   S39       1.0  0.31981000000000004  0.548  0.2997  1.0000
  S   S40       1.0  0.68019  0.548  0.20029999999999992  1.0000
  S   S41       1.0  0.2562699999999999  0.803  0.7986999999999997  1.0000
  S   S42       1.0  0.74373  0.803  0.7013000000000001  1.0000
  S   S43       1.0  0.7562699999999999  0.30299999999999994  0.7986999999999997  1.0000
  S   S44       1.0  0.24373000000000006  0.30299999999999994  0.7013000000000001  1.0000
  S   S45       1.0  0.74373  0.19699999999999995  0.20130000000000015  1.0000
  S   S46       1.0  0.25626999999999994  0.19699999999999995  0.29869999999999974  1.0000
  S   S47       1.0  0.24373000000000006  0.697  0.20130000000000015  1.0000
  S   S48       1.0  0.75627  0.697  0.29869999999999974  1.0000
  S   S49       1.0  0.16705  0.8494  0.844  1.0000
  S   S50       1.0  0.8329500000000001  0.8494  0.656  1.0000
  S   S51       1.0  0.66705  0.34940000000000015  0.844  1.0000
  S   S52       1.0  0.33294999999999997  0.34940000000000015  0.656  1.0000
  S   S53       1.0  0.8329500000000001  0.15059999999999996  0.15600000000000003  1.0000
  S   S54       1.0  0.16705  0.15059999999999996  0.34399999999999986  1.0000
  S   S55       1.0  0.33294999999999997  0.6506  0.15600000000000003  1.0000
  S   S56       1.0  0.66705  0.6506  0.34399999999999986  1.0000
  S   S57       1.0  0.16355000000000003  0.4986  0.6618  1.0000
  S   S58       1.0  0.8364500000000001  0.4986  0.8382  1.0000
  S   S59       1.0  0.6635500000000001  0.9985999999999998  0.6618  1.0000
  S   S60       1.0  0.33644999999999997  0.9985999999999998  0.8382  1.0000
  S   S61       1.0  0.83645  0.5014  0.33819999999999995  1.0000
  S   S62       1.0  0.16355000000000003  0.5014  0.16179999999999994  1.0000
  S   S63       1.0  0.33644999999999997  0.0014000000000000123  0.33819999999999995  1.0000
  S   S64       1.0  0.6635500000000001  0.0014000000000000123  0.16179999999999994  1.0000
  S   S65       1.0  0.25491  0.6267  0.7181  1.0000
  S   S66       1.0  0.74509  0.6267  0.7818999999999999  1.0000
  S   S67       1.0  0.75491  0.12670000000000003  0.7181  1.0000
  S   S68       1.0  0.24508999999999992  0.12670000000000003  0.7818999999999999  1.0000
  S   S69       1.0  0.74509  0.37329999999999997  0.28190000000000004  1.0000
  S   S70       1.0  0.25491  0.37329999999999997  0.21809999999999993  1.0000
  S   S71       1.0  0.24508999999999997  0.8732999999999999  0.28190000000000004  1.0000
  S   S72       1.0  0.75491  0.8732999999999999  0.21809999999999993  1.0000
  S   S73       1.0  0.18033  0.6062  0.5245  1.0000
  S   S74       1.0  0.81967  0.6062  0.9754999999999999  1.0000
  S   S75       1.0  0.68033  0.10619999999999984  0.5245  1.0000
  S   S76       1.0  0.31967000000000007  0.10619999999999984  0.9754999999999999  1.0000
  S   S77       1.0  0.8196700000000001  0.39380000000000004  0.47550000000000003  1.0000
  S   S78       1.0  0.18033  0.39380000000000004  0.024499999999999966  1.0000
  S   S79       1.0  0.31967000000000007  0.8938  0.47550000000000003  1.0000
  S   S80       1.0  0.68033  0.8938  0.024499999999999966  1.0000
  S   S81       1.0  0.08143000000000002  0.7225  0.8027  1.0000
  S   S82       1.0  0.91857  0.7225  0.6973  1.0000
  S   S83       1.0  0.58143  0.22250000000000014  0.8027  1.0000
  S   S84       1.0  0.41857  0.22250000000000014  0.6973  1.0000
  S   S85       1.0  0.91857  0.27749999999999997  0.19730000000000003  1.0000
  S   S86       1.0  0.08143000000000002  0.27749999999999997  0.30269999999999997  1.0000
  S   S87       1.0  0.41857  0.7775  0.19730000000000003  1.0000
  S   S88       1.0  0.58143  0.7775  0.30269999999999997  1.0000
  S   S89       1.0  0.10774000000000002  0.9215999999999999  0.5185  1.0000
  S   S90       1.0  0.8922599999999998  0.9215999999999999  0.9815  1.0000
  S   S91       1.0  0.6077400000000001  0.4215999999999997  0.5185  1.0000
  S   S92       1.0  0.39226  0.4215999999999997  0.9815  1.0000
  S   S93       1.0  0.8922599999999998  0.07840000000000014  0.4815  1.0000
  S   S94       1.0  0.10774000000000002  0.07840000000000014  0.01849999999999996  1.0000
  S   S95       1.0  0.39226  0.5784000000000001  0.4815  1.0000
  S   S96       1.0  0.6077400000000001  0.5784000000000001  0.01849999999999996  1.0000
  S   S97       1.0  0.08105  0.5458  0.7099  1.0000
  S   S98       1.0  0.9189500000000002  0.5458  0.7901  1.0000
  S   S99       1.0  0.58105  0.04579999999999984  0.7099  1.0000
  S   S100      1.0  0.41895  0.04579999999999984  0.7901  1.0000
  S   S101      1.0  0.9189500000000002  0.45420000000000005  0.29009999999999997  1.0000
  S   S102      1.0  0.08104999999999998  0.45420000000000005  0.20989999999999995  1.0000
  S   S103      1.0  0.41894999999999993  0.9542  0.29009999999999997  1.0000
  S   S104      1.0  0.58105  0.9542  0.20989999999999995  1.0000
  S   S105      1.0  0.004860000000000007  0.6964  0.6132  1.0000
  S   S106      1.0  0.99514  0.6964  0.8867999999999999  1.0000
  S   S107      1.0  0.50486  0.19640000000000013  0.6132  1.0000
  S   S108      1.0  0.49513999999999986  0.19640000000000013  0.8867999999999999  1.0000
  S   S109      1.0  0.99514  0.3035999999999999  0.38680000000000003  1.0000
  S   S110      1.0  0.004860000000000007  0.3035999999999999  0.11319999999999995  1.0000
  S   S111      1.0  0.49513999999999997  0.8036  0.38680000000000003  1.0000
  S   S112      1.0  0.50486  0.8036  0.11319999999999995  1.0000
  S   S113      1.0  0.017339999999999967  0.7912  0.47259999999999996  1.0000
  S   S114      1.0  0.9826600000000001  0.7912  0.027400000000000035  1.0000
  S   S115      1.0  0.51734  0.2911999999999999  0.47259999999999996  1.0000
  S   S116      1.0  0.48266000000000003  0.2911999999999999  0.027400000000000035  1.0000
  S   S117      1.0  0.9826600000000001  0.20879999999999996  0.5274000000000001  1.0000
  S   S118      1.0  0.01733999999999994  0.20879999999999996  0.9725999999999999  1.0000
  S   S119      1.0  0.48266000000000003  0.7088  0.5274000000000001  1.0000
  S   S120      1.0  0.51734  0.7088  0.9725999999999999  1.0000
  S   S121      1.0  0.24799  0.466  0.6064999999999999  1.0000
  S   S122      1.0  0.7520100000000001  0.466  0.8935  1.0000
  S   S123      1.0  0.7479899999999999  0.966  0.6064999999999999  1.0000
  S   S124      1.0  0.25201  0.966  0.8935  1.0000
  S   S125      1.0  0.7520100000000001  0.534  0.39350000000000007  1.0000
  S   S126      1.0  0.24799  0.534  0.10650000000000004  1.0000
  S   S127      1.0  0.25201  0.033999999999999975  0.39350000000000007  1.0000
  S   S128      1.0  0.7479899999999999  0.033999999999999975  0.10650000000000004  1.0000
  S   S129      1.0  0.10514  0.7443  0.426  1.0000
  S   S130      1.0  0.89486  0.7443  0.07400000000000001  1.0000
  S   S131      1.0  0.60514  0.24429999999999993  0.426  1.0000
  S   S132      1.0  0.39486000000000004  0.24429999999999993  0.07400000000000001  1.0000
  S   S133      1.0  0.89486  0.25570000000000004  0.5740000000000001  1.0000
  S   S134      1.0  0.10514  0.25570000000000004  0.9259999999999999  1.0000
  S   S135      1.0  0.39486  0.7557  0.5740000000000001  1.0000
  S   S136      1.0  0.60514  0.7557  0.9259999999999999  1.0000
  S   S137      1.0  0.0  0.5779  0.75  1.0000
  S   S138      1.0  0.5  0.07790000000000008  0.75  1.0000
  S   S139      1.0  0.0  0.42210000000000003  0.25  1.0000
  S   S140      1.0  0.5  0.9220999999999999  0.25  1.0000
  S   S141      1.0  0.03442  0.8957  0.3414  1.0000
  S   S142      1.0  0.96558  0.8957  0.1586  1.0000
  S   S143      1.0  0.53442  0.3957000000000001  0.3414  1.0000
  S   S144      1.0  0.46558000000000005  0.3957000000000001  0.1586  1.0000
  S   S145      1.0  0.96558  0.10429999999999995  0.6586000000000001  1.0000
  S   S146      1.0  0.034419999999999965  0.10429999999999995  0.8413999999999998  1.0000
  S   S147      1.0  0.46558000000000005  0.6043  0.6586000000000001  1.0000
  S   S148      1.0  0.53442  0.6043  0.8413999999999998  1.0000
  S   S149      1.0  0.0  0.8272  0.25  1.0000
  S   S150      1.0  0.5  0.32719999999999994  0.25  1.0000
  S   S151      1.0  0.0  0.17279999999999995  0.75  1.0000
  S   S152      1.0  0.5  0.6728  0.75  1.0000
