data_image0
_chemical_formula_structural       Cr2N2
_chemical_formula_sum              "Cr2 N2"
_cell_length_a       2.8831
_cell_length_b       2.9638
_cell_length_c       4.1342
_cell_angle_alpha    90.0
_cell_angle_beta     90.0
_cell_angle_gamma    90.0

_space_group_name_H-M_alt    "P 1"
_space_group_IT_number       1

loop_
  _space_group_symop_operation_xyz
  'x, y, z'

loop_
  _atom_site_type_symbol
  _atom_site_label
  _atom_site_symmetry_multiplicity
  _atom_site_fract_x
  _atom_site_fract_y
  _atom_site_fract_z
  _atom_site_occupancy
  Cr  Cr1       1.0  0.23999999999999994  0.25  0.25  0.9375
  Cr  Cr2       1.0  0.76  0.7500000000000001  0.75  0.9375
  N   N1        1.0  0.26  0.25  0.75  1.0000
  N   N2        1.0  0.74  0.7500000000000001  0.25  1.0000
  V   V1        1.0  0.23999999999999994  0.25  0.25  0.0625
  V   V2        1.0  0.76  0.7500000000000001  0.75  0.0625
