data_image0
_chemical_formula_structural       Mn4Pb8Sr8O32
_chemical_formula_sum              "Mn4 Pb8 Sr8 O32"
_cell_length_a       5.3204
_cell_length_b       5.3796
_cell_length_c       23.71399
_cell_angle_alpha    90.0
_cell_angle_beta     90.0
_cell_angle_gamma    90.0

_space_group_name_H-M_alt    "P 1"
_space_group_IT_number       1

loop_
  _space_group_symop_operation_xyz
  'x, y, z'

loop_
  _atom_site_type_symbol
  _atom_site_label
  _atom_site_symmetry_multiplicity
  _atom_site_fract_x
  _atom_site_fract_y
  _atom_site_fract_z
  _atom_site_occupancy
  Mn  Mn1       1.0  0.0  0.25  0.25  1.0000
  Mn  Mn2       1.0  0.0  0.75  0.75  1.0000
  Mn  Mn3       1.0  0.5  0.25  0.75  1.0000
  Mn  Mn4       1.0  0.5  0.75  0.25  1.0000
  Pb  Pb1       1.0  0.0  0.2496  0.0609  0.5000
  Pb  Pb2       1.0  0.0  0.7504  0.9391  0.5000
  Pb  Pb3       1.0  0.5  0.2496  0.9391  0.5000
  Pb  Pb4       1.0  0.5  0.7504  0.0609  0.5000
  Pb  Pb5       1.0  0.0  0.7496  0.5609  0.5000
  Pb  Pb6       1.0  0.0  0.2504  0.43909999999999993  0.5000
  Pb  Pb7       1.0  0.5  0.7496  0.43909999999999993  0.5000
  Pb  Pb8       1.0  0.5  0.2504  0.5609  0.5000
  Sr  Sr1       1.0  0.0  0.7467999999999999  0.171  1.0000
  Sr  Sr2       1.0  0.0  0.2532000000000001  0.829  1.0000
  Sr  Sr3       1.0  0.5  0.7467999999999999  0.829  1.0000
  Sr  Sr4       1.0  0.5  0.2532000000000001  0.171  1.0000
  Sr  Sr5       1.0  0.0  0.24679999999999988  0.671  1.0000
  Sr  Sr6       1.0  0.0  0.7532  0.32899999999999996  1.0000
  Sr  Sr7       1.0  0.5  0.24679999999999988  0.32899999999999996  1.0000
  Sr  Sr8       1.0  0.5  0.7532  0.671  1.0000
  O   O1        1.0  0.25  0.0  0.247  1.0000
  O   O2        1.0  0.25  0.0  0.753  1.0000
  O   O3        1.0  0.7500000000000001  0.0  0.753  1.0000
  O   O4        1.0  0.7500000000000001  0.0  0.247  1.0000
  O   O5        1.0  0.25  0.5  0.747  1.0000
  O   O6        1.0  0.25  0.5  0.253  1.0000
  O   O7        1.0  0.7500000000000001  0.5  0.253  1.0000
  O   O8        1.0  0.7500000000000001  0.5  0.747  1.0000
  O   O9        1.0  0.0  0.26289999999999997  0.1519  1.0000
  O   O10       1.0  0.0  0.7371000000000001  0.8481  1.0000
  O   O11       1.0  0.5  0.26289999999999997  0.8481  1.0000
  O   O12       1.0  0.5  0.7371000000000001  0.1519  1.0000
  O   O13       1.0  0.0  0.7628999999999999  0.6519  1.0000
  O   O14       1.0  0.0  0.23710000000000003  0.3480999999999999  1.0000
  O   O15       1.0  0.5  0.7628999999999999  0.3480999999999999  1.0000
  O   O16       1.0  0.5  0.23710000000000003  0.6519  1.0000
  O   O17       1.0  0.3978  0.15249999999999997  0.0653  0.5000
  O   O18       1.0  0.3978  0.8475  0.9346999999999999  0.5000
  O   O19       1.0  0.10220000000000001  0.15249999999999997  0.9346999999999999  0.5000
  O   O20       1.0  0.10220000000000001  0.8475  0.0653  0.5000
  O   O21       1.0  0.6022000000000001  0.8475  0.9346999999999999  0.5000
  O   O22       1.0  0.6022000000000001  0.15249999999999997  0.0653  0.5000
  O   O23       1.0  0.8978  0.8475  0.0653  0.5000
  O   O24       1.0  0.8978  0.15249999999999997  0.9346999999999999  0.5000
  O   O25       1.0  0.3978  0.6525  0.5653  0.5000
  O   O26       1.0  0.3978  0.34750000000000003  0.4347  0.5000
  O   O27       1.0  0.10220000000000001  0.6525  0.4347  0.5000
  O   O28       1.0  0.10220000000000001  0.34750000000000003  0.5653  0.5000
  O   O29       1.0  0.6022000000000001  0.34750000000000003  0.4347  0.5000
  O   O30       1.0  0.6022000000000001  0.6525  0.5653  0.5000
  O   O31       1.0  0.8978  0.34750000000000003  0.5653  0.5000
  O   O32       1.0  0.8978  0.6525  0.4347  0.5000
  Bi  Bi1       1.0  0.0  0.2496  0.0609  0.5000
  Bi  Bi2       1.0  0.0  0.7504  0.9391  0.5000
  Bi  Bi3       1.0  0.5  0.2496  0.9391  0.5000
  Bi  Bi4       1.0  0.5  0.7504  0.0609  0.5000
  Bi  Bi5       1.0  0.0  0.7496  0.5609  0.5000
  Bi  Bi6       1.0  0.0  0.2504  0.43909999999999993  0.5000
  Bi  Bi7       1.0  0.5  0.7496  0.43909999999999993  0.5000
  Bi  Bi8       1.0  0.5  0.2504  0.5609  0.5000
