data_image0
_chemical_formula_structural       P12Al4O36
_chemical_formula_sum              "P12 Al4 O36"
_cell_length_a       6.0931
_cell_length_b       15.0676
_cell_length_c       8.2016
_cell_angle_alpha    90.0
_cell_angle_beta     105.16599999999998
_cell_angle_gamma    90.0

_space_group_name_H-M_alt    "P 1"
_space_group_IT_number       1

loop_
  _space_group_symop_operation_xyz
  'x, y, z'

loop_
  _atom_site_type_symbol
  _atom_site_label
  _atom_site_symmetry_multiplicity
  _atom_site_fract_x
  _atom_site_fract_y
  _atom_site_fract_z
  _atom_site_occupancy
  P   P1        1.0  0.7014899999999998  0.3373800000000001  0.01706  1.0000
  P   P2        1.0  0.29851000000000016  0.83738  0.48294000000000004  1.0000
  P   P3        1.0  0.2985100000000002  0.66262  0.9829400000000001  1.0000
  P   P4        1.0  0.7014899999999998  0.16261999999999993  0.51706  1.0000
  P   P5        1.0  0.64525  0.044310000000000016  0.21869  1.0000
  P   P6        1.0  0.35475  0.54431  0.28131  1.0000
  P   P7        1.0  0.35475  0.9556900000000002  0.78131  1.0000
  P   P8        1.0  0.64525  0.45569  0.7186900000000002  1.0000
  P   P9        1.0  0.08497000000000002  0.11301  0.7906299999999999  1.0000
  P   P10       1.0  0.9150299999999999  0.61301  0.7093700000000002  1.0000
  P   P11       1.0  0.9150299999999999  0.88699  0.20937  1.0000
  P   P12       1.0  0.08497000000000002  0.38699  0.29063  1.0000
  Al  Al1       1.0  0.61549  0.13831  0.8768700000000001  1.0000
  Al  Al2       1.0  0.38451  0.63831  0.62313  1.0000
  Al  Al3       1.0  0.3845100000000001  0.8616900000000002  0.12313000000000003  1.0000
  Al  Al4       1.0  0.6154899999999999  0.36169000000000007  0.37687  1.0000
  O   O1        1.0  0.30510000000000004  0.15855  0.8546  1.0000
  O   O2        1.0  0.6949  0.65855  0.6454000000000001  1.0000
  O   O3        1.0  0.6949  0.84145  0.1454  1.0000
  O   O4        1.0  0.30510000000000004  0.3414500000000001  0.3546000000000001  1.0000
  O   O5        1.0  0.9234  0.11484  0.8974  1.0000
  O   O6        1.0  0.07660000000000002  0.61484  0.6026000000000001  1.0000
  O   O7        1.0  0.0766  0.88516  0.1026  1.0000
  O   O8        1.0  0.9234  0.38516000000000006  0.3974  1.0000
  O   O9        1.0  0.6755  0.2585  0.908  1.0000
  O   O10       1.0  0.32450000000000007  0.7585000000000001  0.5920000000000001  1.0000
  O   O11       1.0  0.3245  0.7415  0.09200000000000003  1.0000
  O   O12       1.0  0.6755  0.24150000000000002  0.40800000000000003  1.0000
  O   O13       1.0  0.6653  0.12162000000000003  0.1117  1.0000
  O   O14       1.0  0.3347  0.6216200000000001  0.3883  1.0000
  O   O15       1.0  0.3347  0.8783799999999999  0.8883000000000001  1.0000
  O   O16       1.0  0.6653  0.37838  0.6117  1.0000
  O   O17       1.0  0.5656  0.3455500000000001  0.14150000000000004  1.0000
  O   O18       1.0  0.4344  0.84555  0.3585  1.0000
  O   O19       1.0  0.4344  0.65445  0.8585  1.0000
  O   O20       1.0  0.5656  0.15444999999999992  0.6415  1.0000
  O   O21       1.0  0.4447999999999999  0.9850500000000001  0.1608  1.0000
  O   O22       1.0  0.5552000000000001  0.48505000000000004  0.33920000000000006  1.0000
  O   O23       1.0  0.5552000000000001  0.01495  0.8392000000000001  1.0000
  O   O24       1.0  0.4447999999999999  0.51495  0.6608  1.0000
  O   O25       1.0  0.6509  0.4239500000000001  0.9033  1.0000
  O   O26       1.0  0.3491  0.9239500000000002  0.5967000000000001  1.0000
  O   O27       1.0  0.34909999999999997  0.5760500000000001  0.0967  1.0000
  O   O28       1.0  0.6509  0.07604999999999995  0.4033  1.0000
  O   O29       1.0  0.8737  0.98773  0.2539  1.0000
  O   O30       1.0  0.12629999999999997  0.48773000000000005  0.24609999999999999  1.0000
  O   O31       1.0  0.12629999999999994  0.01227  0.7461  1.0000
  O   O32       1.0  0.8737  0.51227  0.7539000000000001  1.0000
  O   O33       1.0  0.9652999999999999  0.3477900000000001  0.1085  1.0000
  O   O34       1.0  0.03470000000000009  0.84779  0.39150000000000007  1.0000
  O   O35       1.0  0.03470000000000009  0.65221  0.8915000000000001  1.0000
  O   O36       1.0  0.9652999999999999  0.15220999999999996  0.6085  1.0000
