data_image0
_chemical_formula_structural       P2B2O8
_chemical_formula_sum              "P2 B2 O8"
_cell_length_a       4.332
_cell_length_b       4.332
_cell_length_c       6.64
_cell_angle_alpha    90.0
_cell_angle_beta     90.0
_cell_angle_gamma    90.0

_space_group_name_H-M_alt    "P 1"
_space_group_IT_number       1

loop_
  _space_group_symop_operation_xyz
  'x, y, z'

loop_
  _atom_site_type_symbol
  _atom_site_label
  _atom_site_symmetry_multiplicity
  _atom_site_fract_x
  _atom_site_fract_y
  _atom_site_fract_z
  _atom_site_occupancy
  P   P1        1.0  0.0  0.0  0.0  1.0000
  P   P2        1.0  0.5  0.5  0.5  1.0000
  B   B1        1.0  0.0  0.5  0.25  1.0000
  B   B2        1.0  0.5  0.0  0.75  1.0000
  O   O1        1.0  0.138  0.26  0.131  1.0000
  O   O2        1.0  0.8620000000000001  0.74  0.131  1.0000
  O   O3        1.0  0.26  0.8620000000000001  0.869  1.0000
  O   O4        1.0  0.74  0.138  0.869  1.0000
  O   O5        1.0  0.638  0.7600000000000001  0.6310000000000001  1.0000
  O   O6        1.0  0.362  0.24  0.6310000000000001  1.0000
  O   O7        1.0  0.7600000000000001  0.362  0.369  1.0000
  O   O8        1.0  0.24  0.638  0.369  1.0000
