data_image0
_chemical_formula_structural       Ag2Co2N12O16
_chemical_formula_sum              "Ag2 Co2 N12 O16"
_cell_length_a       6.97
_cell_length_b       6.97
_cell_length_c       10.43
_cell_angle_alpha    90.0
_cell_angle_beta     90.0
_cell_angle_gamma    90.0

_space_group_name_H-M_alt    "P 1"
_space_group_IT_number       1

loop_
  _space_group_symop_operation_xyz
  'x, y, z'

loop_
  _atom_site_type_symbol
  _atom_site_label
  _atom_site_symmetry_multiplicity
  _atom_site_fract_x
  _atom_site_fract_y
  _atom_site_fract_z
  _atom_site_occupancy
  Ag  Ag1       1.0  0.0  0.0  0.0  1.0000
  Ag  Ag2       1.0  0.49999999999999994  0.49999999999999994  0.5  1.0000
  Co  Co1       1.0  0.4999999999999999  0.4999999999999999  0.0  1.0000
  Co  Co2       1.0  0.0  0.0  0.5  1.0000
  N   N1        1.0  0.0  0.0  0.22  1.0000
  N   N2        1.0  0.49999999999999994  0.49999999999999994  0.28  1.0000
  N   N3        1.0  0.0  0.0  0.7800000000000001  1.0000
  N   N4        1.0  0.49999999999999994  0.49999999999999994  0.72  1.0000
  N   N5        1.0  0.195  0.195  0.0  1.0000
  N   N6        1.0  0.8049999999999998  0.8049999999999998  0.0  1.0000
  N   N7        1.0  0.695  0.695  0.5  1.0000
  N   N8        1.0  0.30499999999999994  0.30499999999999994  0.5  1.0000
  N   N9        1.0  0.8049999999999998  0.195  0.0  1.0000
  N   N10       1.0  0.195  0.8049999999999998  0.0  1.0000
  N   N11       1.0  0.30499999999999994  0.695  0.5  1.0000
  N   N12       1.0  0.695  0.30499999999999994  0.5  1.0000
  O   O1        1.0  0.3099999999999999  0.21999999999999995  0.09  1.0000
  O   O2        1.0  0.6900000000000001  0.78  0.09  1.0000
  O   O3        1.0  0.8099999999999999  0.72  0.41000000000000003  1.0000
  O   O4        1.0  0.19000000000000003  0.28  0.41000000000000003  1.0000
  O   O5        1.0  0.6900000000000001  0.21999999999999995  0.9100000000000001  1.0000
  O   O6        1.0  0.3099999999999999  0.78  0.9100000000000001  1.0000
  O   O7        1.0  0.19000000000000003  0.72  0.59  1.0000
  O   O8        1.0  0.8099999999999999  0.28  0.59  1.0000
  O   O9        1.0  0.78  0.3099999999999999  0.09  1.0000
  O   O10       1.0  0.21999999999999995  0.6900000000000001  0.09  1.0000
  O   O11       1.0  0.28  0.8099999999999999  0.41000000000000003  1.0000
  O   O12       1.0  0.72  0.19000000000000003  0.41000000000000003  1.0000
  O   O13       1.0  0.78  0.6900000000000001  0.9100000000000001  1.0000
  O   O14       1.0  0.21999999999999995  0.3099999999999999  0.9100000000000001  1.0000
  O   O15       1.0  0.28  0.19000000000000003  0.59  1.0000
  O   O16       1.0  0.72  0.8099999999999999  0.59  1.0000
