data_image0
_chemical_formula_structural       Al4Na4F24N8H32
_chemical_formula_sum              "Al4 Na4 F24 N8 H32"
_cell_length_a       8.345
_cell_length_b       8.345
_cell_length_c       8.345
_cell_angle_alpha    90.0
_cell_angle_beta     90.0
_cell_angle_gamma    90.0

_space_group_name_H-M_alt    "P 1"
_space_group_IT_number       1

loop_
  _space_group_symop_operation_xyz
  'x, y, z'

loop_
  _atom_site_type_symbol
  _atom_site_label
  _atom_site_symmetry_multiplicity
  _atom_site_fract_x
  _atom_site_fract_y
  _atom_site_fract_z
  _atom_site_occupancy
  Al  Al1       1.0  0.5  0.5  0.0  1.0000
  Al  Al2       1.0  0.0  0.5  0.5  1.0000
  Al  Al3       1.0  0.5  0.0  0.5  1.0000
  Al  Al4       1.0  0.0  0.0  0.0  1.0000
  Na  Na1       1.0  0.5  0.5  0.5  1.0000
  Na  Na2       1.0  0.5  0.0  0.0  1.0000
  Na  Na3       1.0  0.0  0.5  0.0  1.0000
  Na  Na4       1.0  0.0  0.0  0.5  1.0000
  F   F1        1.0  0.5  0.5  0.21749999999999994  1.0000
  F   F2        1.0  0.5  0.5  0.7824999999999999  1.0000
  F   F3        1.0  0.21749999999999994  0.5  0.5  1.0000
  F   F4        1.0  0.7824999999999999  0.5  0.5  1.0000
  F   F5        1.0  0.5  0.21749999999999994  0.5  1.0000
  F   F6        1.0  0.5  0.7824999999999999  0.5  1.0000
  F   F7        1.0  0.5  0.0  0.7175  1.0000
  F   F8        1.0  0.5  0.0  0.28250000000000003  1.0000
  F   F9        1.0  0.21749999999999994  0.0  0.0  1.0000
  F   F10       1.0  0.7824999999999999  0.0  0.0  1.0000
  F   F11       1.0  0.5  0.7175  0.0  1.0000
  F   F12       1.0  0.5  0.28250000000000003  0.0  1.0000
  F   F13       1.0  0.0  0.5  0.7175  1.0000
  F   F14       1.0  0.0  0.5  0.28250000000000003  1.0000
  F   F15       1.0  0.7175  0.5  0.0  1.0000
  F   F16       1.0  0.28250000000000003  0.5  0.0  1.0000
  F   F17       1.0  0.0  0.21749999999999994  0.0  1.0000
  F   F18       1.0  0.0  0.7824999999999999  0.0  1.0000
  F   F19       1.0  0.0  0.0  0.21749999999999994  1.0000
  F   F20       1.0  0.0  0.0  0.7824999999999999  1.0000
  F   F21       1.0  0.7175  0.0  0.5  1.0000
  F   F22       1.0  0.28250000000000003  0.0  0.5  1.0000
  F   F23       1.0  0.0  0.7175  0.5  1.0000
  F   F24       1.0  0.0  0.28250000000000003  0.5  1.0000
  N   N1        1.0  0.25  0.25  0.25  1.0000
  N   N2        1.0  0.75  0.75  0.25  1.0000
  N   N3        1.0  0.75  0.25  0.75  1.0000
  N   N4        1.0  0.25  0.75  0.75  1.0000
  N   N5        1.0  0.25  0.25  0.75  1.0000
  N   N6        1.0  0.75  0.75  0.75  1.0000
  N   N7        1.0  0.25  0.75  0.25  1.0000
  N   N8        1.0  0.75  0.25  0.25  1.0000
  H   H1        1.0  0.1887  0.3113  0.3113  1.0000
  H   H2        1.0  0.8113  0.6886999999999999  0.3113  1.0000
  H   H3        1.0  0.8113  0.3113  0.6886999999999999  1.0000
  H   H4        1.0  0.1887  0.6886999999999999  0.6886999999999999  1.0000
  H   H5        1.0  0.3113  0.1887  0.3113  1.0000
  H   H6        1.0  0.3113  0.8113  0.6886999999999999  1.0000
  H   H7        1.0  0.6886999999999999  0.8113  0.3113  1.0000
  H   H8        1.0  0.6886999999999999  0.1887  0.6886999999999999  1.0000
  H   H9        1.0  0.3113  0.3113  0.1887  1.0000
  H   H10       1.0  0.6886999999999999  0.3113  0.8113  1.0000
  H   H11       1.0  0.3113  0.6886999999999999  0.8113  1.0000
  H   H12       1.0  0.6886999999999999  0.6886999999999999  0.1887  1.0000
  H   H13       1.0  0.3113  0.1887  0.6886999999999999  1.0000
  H   H14       1.0  0.6886999999999999  0.8113  0.6886999999999999  1.0000
  H   H15       1.0  0.3113  0.8113  0.3113  1.0000
  H   H16       1.0  0.6886999999999999  0.1887  0.3113  1.0000
  H   H17       1.0  0.1887  0.3113  0.6886999999999999  1.0000
  H   H18       1.0  0.8113  0.3113  0.3113  1.0000
  H   H19       1.0  0.8113  0.6886999999999999  0.6886999999999999  1.0000
  H   H20       1.0  0.1887  0.6886999999999999  0.3113  1.0000
  H   H21       1.0  0.3113  0.3113  0.8113  1.0000
  H   H22       1.0  0.3113  0.6886999999999999  0.1887  1.0000
  H   H23       1.0  0.6886999999999999  0.3113  0.1887  1.0000
  H   H24       1.0  0.6886999999999999  0.6886999999999999  0.8113  1.0000
  H   H25       1.0  0.1887  0.8113  0.8113  1.0000
  H   H26       1.0  0.8113  0.18869999999999998  0.8113  1.0000
  H   H27       1.0  0.8113  0.8113  0.18869999999999998  1.0000
  H   H28       1.0  0.1887  0.18869999999999998  0.18869999999999998  1.0000
  H   H29       1.0  0.1887  0.8113  0.18869999999999998  1.0000
  H   H30       1.0  0.8113  0.8113  0.8113  1.0000
  H   H31       1.0  0.8113  0.18869999999999998  0.18869999999999998  1.0000
  H   H32       1.0  0.1887  0.18869999999999998  0.8113  1.0000
