data_image0
_chemical_formula_structural       W16O56
_chemical_formula_sum              "W16 O56"
_cell_length_a       10.206
_cell_length_b       10.206
_cell_length_c       10.206
_cell_angle_alpha    90.0
_cell_angle_beta     90.0
_cell_angle_gamma    90.0

_space_group_name_H-M_alt    "P 1"
_space_group_IT_number       1

loop_
  _space_group_symop_operation_xyz
  'x, y, z'

loop_
  _atom_site_type_symbol
  _atom_site_label
  _atom_site_symmetry_multiplicity
  _atom_site_fract_x
  _atom_site_fract_y
  _atom_site_fract_z
  _atom_site_occupancy
  W   W1        1.0  0.0  0.0  0.0  1.0000
  W   W2        1.0  0.0  0.25  0.25  1.0000
  W   W3        1.0  0.25  0.0  0.25  1.0000
  W   W4        1.0  0.25  0.25  0.0  1.0000
  W   W5        1.0  0.0  0.75  0.75  1.0000
  W   W6        1.0  0.75  0.0  0.75  1.0000
  W   W7        1.0  0.75  0.75  0.0  1.0000
  W   W8        1.0  0.0  0.5  0.5  1.0000
  W   W9        1.0  0.5  0.0  0.5  1.0000
  W   W10       1.0  0.5  0.5  0.0  1.0000
  W   W11       1.0  0.5  0.25  0.75  1.0000
  W   W12       1.0  0.5  0.75  0.25  1.0000
  W   W13       1.0  0.25  0.5  0.75  1.0000
  W   W14       1.0  0.75  0.5  0.25  1.0000
  W   W15       1.0  0.25  0.75  0.5  1.0000
  W   W16       1.0  0.75  0.25  0.5  1.0000
  O   O1        1.0  0.41800000000000004  0.125  0.125  1.0000
  O   O2        1.0  0.832  0.125  0.125  1.0000
  O   O3        1.0  0.125  0.125  0.41800000000000004  1.0000
  O   O4        1.0  0.125  0.125  0.832  1.0000
  O   O5        1.0  0.125  0.41800000000000004  0.125  1.0000
  O   O6        1.0  0.125  0.832  0.125  1.0000
  O   O7        1.0  0.582  0.875  0.875  1.0000
  O   O8        1.0  0.16800000000000015  0.875  0.875  1.0000
  O   O9        1.0  0.875  0.875  0.582  1.0000
  O   O10       1.0  0.875  0.875  0.16800000000000015  1.0000
  O   O11       1.0  0.875  0.582  0.875  1.0000
  O   O12       1.0  0.875  0.16800000000000015  0.875  1.0000
  O   O13       1.0  0.41800000000000004  0.625  0.625  1.0000
  O   O14       1.0  0.9180000000000001  0.125  0.625  1.0000
  O   O15       1.0  0.9180000000000001  0.625  0.125  1.0000
  O   O16       1.0  0.832  0.625  0.625  1.0000
  O   O17       1.0  0.33199999999999996  0.125  0.625  1.0000
  O   O18       1.0  0.33199999999999996  0.625  0.125  1.0000
  O   O19       1.0  0.125  0.625  0.9180000000000001  1.0000
  O   O20       1.0  0.625  0.125  0.9180000000000001  1.0000
  O   O21       1.0  0.625  0.625  0.41800000000000004  1.0000
  O   O22       1.0  0.125  0.625  0.33199999999999996  1.0000
  O   O23       1.0  0.625  0.125  0.33199999999999996  1.0000
  O   O24       1.0  0.625  0.625  0.832  1.0000
  O   O25       1.0  0.125  0.9180000000000001  0.625  1.0000
  O   O26       1.0  0.625  0.41800000000000004  0.625  1.0000
  O   O27       1.0  0.625  0.9180000000000001  0.125  1.0000
  O   O28       1.0  0.125  0.33199999999999996  0.625  1.0000
  O   O29       1.0  0.625  0.832  0.625  1.0000
  O   O30       1.0  0.625  0.33199999999999996  0.125  1.0000
  O   O31       1.0  0.582  0.375  0.375  1.0000
  O   O32       1.0  0.08199999999999996  0.875  0.375  1.0000
  O   O33       1.0  0.08199999999999996  0.375  0.875  1.0000
  O   O34       1.0  0.16800000000000015  0.375  0.375  1.0000
  O   O35       1.0  0.668  0.875  0.375  1.0000
  O   O36       1.0  0.668  0.375  0.875  1.0000
  O   O37       1.0  0.875  0.375  0.08199999999999996  1.0000
  O   O38       1.0  0.375  0.875  0.08199999999999996  1.0000
  O   O39       1.0  0.375  0.375  0.582  1.0000
  O   O40       1.0  0.875  0.375  0.668  1.0000
  O   O41       1.0  0.375  0.875  0.668  1.0000
  O   O42       1.0  0.375  0.375  0.16800000000000015  1.0000
  O   O43       1.0  0.875  0.08199999999999996  0.375  1.0000
  O   O44       1.0  0.375  0.582  0.375  1.0000
  O   O45       1.0  0.375  0.08199999999999996  0.875  1.0000
  O   O46       1.0  0.875  0.668  0.375  1.0000
  O   O47       1.0  0.375  0.16800000000000015  0.375  1.0000
  O   O48       1.0  0.375  0.668  0.875  1.0000
  O   O49       1.0  0.125  0.125  0.125  1.0000
  O   O50       1.0  0.875  0.875  0.875  1.0000
  O   O51       1.0  0.125  0.625  0.625  1.0000
  O   O52       1.0  0.625  0.125  0.625  1.0000
  O   O53       1.0  0.625  0.625  0.125  1.0000
  O   O54       1.0  0.875  0.375  0.375  1.0000
  O   O55       1.0  0.375  0.875  0.375  1.0000
  O   O56       1.0  0.375  0.375  0.875  1.0000
