data_image0
_chemical_formula_structural       U48P48O336C24
_chemical_formula_sum              "U48 P48 O336 C24"
_cell_length_a       25.237
_cell_length_b       25.237
_cell_length_c       21.9026
_cell_angle_alpha    90.0
_cell_angle_beta     90.0
_cell_angle_gamma    90.0

_space_group_name_H-M_alt    "P 1"
_space_group_IT_number       1

loop_
  _space_group_symop_operation_xyz
  'x, y, z'

loop_
  _atom_site_type_symbol
  _atom_site_label
  _atom_site_symmetry_multiplicity
  _atom_site_fract_x
  _atom_site_fract_y
  _atom_site_fract_z
  _atom_site_occupancy
  U   U1        1.0  0.711456  0.130589  0.0  1.0000
  U   U2        1.0  0.288544  0.8694109999999999  0.0  1.0000
  U   U3        1.0  0.8694109999999999  0.711456  0.0  1.0000
  U   U4        1.0  0.130589  0.288544  0.0  1.0000
  U   U5        1.0  0.2114560000000001  0.6305890000000001  0.5  1.0000
  U   U6        1.0  0.788544  0.369411  0.5  1.0000
  U   U7        1.0  0.369411  0.2114560000000001  0.5  1.0000
  U   U8        1.0  0.6305890000000001  0.788544  0.5  1.0000
  U   U9        1.0  0.882932  0.002712  0.329904  1.0000
  U   U10       1.0  0.11706799999999995  0.9972879999999998  0.329904  1.0000
  U   U11       1.0  0.9972879999999998  0.882932  0.329904  1.0000
  U   U12       1.0  0.002712  0.11706799999999995  0.329904  1.0000
  U   U13       1.0  0.38293200000000005  0.5027119999999999  0.829904  1.0000
  U   U14       1.0  0.617068  0.49728799999999995  0.829904  1.0000
  U   U15       1.0  0.49728799999999995  0.38293200000000005  0.829904  1.0000
  U   U16       1.0  0.5027119999999999  0.617068  0.829904  1.0000
  U   U17       1.0  0.11706799999999995  0.9972879999999998  0.6700959999999999  1.0000
  U   U18       1.0  0.882932  0.002712  0.6700959999999999  1.0000
  U   U19       1.0  0.002712  0.11706799999999995  0.6700959999999999  1.0000
  U   U20       1.0  0.9972879999999998  0.882932  0.6700959999999999  1.0000
  U   U21       1.0  0.617068  0.49728799999999995  0.17009600000000002  1.0000
  U   U22       1.0  0.38293200000000005  0.5027119999999999  0.17009600000000002  1.0000
  U   U23       1.0  0.5027119999999999  0.617068  0.17009600000000002  1.0000
  U   U24       1.0  0.49728799999999995  0.38293200000000005  0.17009600000000002  1.0000
  U   U25       1.0  0.70975  0.8979829999999999  0.0  1.0000
  U   U26       1.0  0.29025  0.102017  0.0  1.0000
  U   U27       1.0  0.102017  0.70975  0.0  1.0000
  U   U28       1.0  0.8979829999999999  0.29025  0.0  1.0000
  U   U29       1.0  0.20975000000000008  0.397983  0.5  1.0000
  U   U30       1.0  0.79025  0.602017  0.5  1.0000
  U   U31       1.0  0.602017  0.20975000000000008  0.5  1.0000
  U   U32       1.0  0.397983  0.79025  0.5  1.0000
  U   U33       1.0  0.7082229999999999  0.014143999999999997  0.134824  1.0000
  U   U34       1.0  0.29177700000000006  0.985856  0.134824  1.0000
  U   U35       1.0  0.985856  0.7082229999999999  0.134824  1.0000
  U   U36       1.0  0.014143999999999997  0.29177700000000006  0.134824  1.0000
  U   U37       1.0  0.20822299999999982  0.514144  0.634824  1.0000
  U   U38       1.0  0.7917770000000001  0.485856  0.634824  1.0000
  U   U39       1.0  0.485856  0.20822299999999982  0.634824  1.0000
  U   U40       1.0  0.514144  0.7917770000000001  0.634824  1.0000
  U   U41       1.0  0.29177700000000006  0.985856  0.865176  1.0000
  U   U42       1.0  0.7082229999999999  0.014143999999999997  0.865176  1.0000
  U   U43       1.0  0.014143999999999997  0.29177700000000006  0.865176  1.0000
  U   U44       1.0  0.985856  0.7082229999999999  0.865176  1.0000
  U   U45       1.0  0.7917770000000001  0.485856  0.365176  1.0000
  U   U46       1.0  0.20822299999999982  0.514144  0.365176  1.0000
  U   U47       1.0  0.514144  0.7917770000000001  0.365176  1.0000
  U   U48       1.0  0.485856  0.20822299999999982  0.365176  1.0000
  P   P1        1.0  0.7584699999999998  0.94885  0.27327  1.0000
  P   P2        1.0  0.2415300000000001  0.05115  0.27327  1.0000
  P   P3        1.0  0.05115  0.7584699999999998  0.27327  1.0000
  P   P4        1.0  0.94885  0.2415300000000001  0.27327  1.0000
  P   P5        1.0  0.25847  0.4488499999999999  0.77327  1.0000
  P   P6        1.0  0.7415300000000001  0.55115  0.77327  1.0000
  P   P7        1.0  0.55115  0.25847  0.77327  1.0000
  P   P8        1.0  0.4488499999999999  0.7415300000000001  0.77327  1.0000
  P   P9        1.0  0.2415300000000001  0.05115  0.72673  1.0000
  P   P10       1.0  0.7584699999999998  0.94885  0.72673  1.0000
  P   P11       1.0  0.94885  0.2415300000000001  0.72673  1.0000
  P   P12       1.0  0.05115  0.7584699999999998  0.72673  1.0000
  P   P13       1.0  0.7415300000000001  0.55115  0.22673  1.0000
  P   P14       1.0  0.25847  0.4488499999999999  0.22673  1.0000
  P   P15       1.0  0.4488499999999999  0.7415300000000001  0.22673  1.0000
  P   P16       1.0  0.55115  0.25847  0.22673  1.0000
  P   P17       1.0  0.7607199999999998  0.06613  0.27964  1.0000
  P   P18       1.0  0.23928000000000016  0.9338699999999999  0.27964  1.0000
  P   P19       1.0  0.9338699999999999  0.7607199999999998  0.27964  1.0000
  P   P20       1.0  0.06613  0.23928000000000016  0.27964  1.0000
  P   P21       1.0  0.26071999999999984  0.5661299999999999  0.77964  1.0000
  P   P22       1.0  0.7392800000000002  0.43387  0.77964  1.0000
  P   P23       1.0  0.43387  0.26071999999999984  0.77964  1.0000
  P   P24       1.0  0.5661299999999999  0.7392800000000002  0.77964  1.0000
  P   P25       1.0  0.23928000000000016  0.9338699999999999  0.72036  1.0000
  P   P26       1.0  0.7607199999999998  0.06613  0.72036  1.0000
  P   P27       1.0  0.06613  0.23928000000000016  0.72036  1.0000
  P   P28       1.0  0.9338699999999999  0.7607199999999998  0.72036  1.0000
  P   P29       1.0  0.7392800000000002  0.43387  0.22035999999999997  1.0000
  P   P30       1.0  0.26071999999999984  0.5661299999999999  0.22035999999999997  1.0000
  P   P31       1.0  0.5661299999999999  0.7392800000000002  0.22035999999999997  1.0000
  P   P32       1.0  0.43387  0.26071999999999984  0.22035999999999997  1.0000
  P   P33       1.0  0.75104  0.7734099999999998  0.9320999999999999  1.0000
  P   P34       1.0  0.24895999999999993  0.22659  0.9320999999999999  1.0000
  P   P35       1.0  0.22659  0.75104  0.9320999999999999  1.0000
  P   P36       1.0  0.7734099999999998  0.24895999999999993  0.9320999999999999  1.0000
  P   P37       1.0  0.25104000000000015  0.27341  0.4321  1.0000
  P   P38       1.0  0.74896  0.7265900000000001  0.4321  1.0000
  P   P39       1.0  0.7265900000000001  0.25104000000000015  0.4321  1.0000
  P   P40       1.0  0.27341  0.74896  0.4321  1.0000
  P   P41       1.0  0.24895999999999993  0.22659  0.0679  1.0000
  P   P42       1.0  0.75104  0.7734099999999998  0.0679  1.0000
  P   P43       1.0  0.7734099999999998  0.24895999999999993  0.0679  1.0000
  P   P44       1.0  0.22659  0.75104  0.0679  1.0000
  P   P45       1.0  0.74896  0.7265900000000001  0.5679  1.0000
  P   P46       1.0  0.25104000000000015  0.27341  0.5679  1.0000
  P   P47       1.0  0.27341  0.74896  0.5679  1.0000
  P   P48       1.0  0.7265900000000001  0.25104000000000015  0.5679  1.0000
  O   O1        1.0  0.82111  0.06012  0.28219  1.0000
  O   O2        1.0  0.17889  0.9398799999999999  0.28219  1.0000
  O   O3        1.0  0.9398799999999999  0.82111  0.28219  1.0000
  O   O4        1.0  0.06012  0.17889  0.28219  1.0000
  O   O5        1.0  0.32111  0.56012  0.7821899999999999  1.0000
  O   O6        1.0  0.67889  0.43988  0.7821899999999999  1.0000
  O   O7        1.0  0.43988  0.32111  0.7821899999999999  1.0000
  O   O8        1.0  0.56012  0.67889  0.7821899999999999  1.0000
  O   O9        1.0  0.17889  0.9398799999999999  0.7178100000000001  1.0000
  O   O10       1.0  0.82111  0.06012  0.7178100000000001  1.0000
  O   O11       1.0  0.06012  0.17889  0.7178100000000001  1.0000
  O   O12       1.0  0.9398799999999999  0.82111  0.7178100000000001  1.0000
  O   O13       1.0  0.67889  0.43988  0.21781  1.0000
  O   O14       1.0  0.32111  0.56012  0.21781  1.0000
  O   O15       1.0  0.56012  0.67889  0.21781  1.0000
  O   O16       1.0  0.43988  0.32111  0.21781  1.0000
  O   O17       1.0  0.94544  0.9482899999999999  0.3780299999999999  1.0000
  O   O18       1.0  0.054560000000000046  0.05171  0.3780299999999999  1.0000
  O   O19       1.0  0.05171  0.94544  0.3780299999999999  1.0000
  O   O20       1.0  0.9482899999999999  0.054560000000000046  0.3780299999999999  1.0000
  O   O21       1.0  0.44544  0.44829  0.8780299999999999  1.0000
  O   O22       1.0  0.55456  0.55171  0.8780299999999999  1.0000
  O   O23       1.0  0.55171  0.44544  0.8780299999999999  1.0000
  O   O24       1.0  0.44829  0.55456  0.8780299999999999  1.0000
  O   O25       1.0  0.054560000000000046  0.05171  0.6219700000000001  1.0000
  O   O26       1.0  0.94544  0.9482899999999999  0.6219700000000001  1.0000
  O   O27       1.0  0.9482899999999999  0.054560000000000046  0.6219700000000001  1.0000
  O   O28       1.0  0.05171  0.94544  0.6219700000000001  1.0000
  O   O29       1.0  0.55456  0.55171  0.12197000000000008  1.0000
  O   O30       1.0  0.44544  0.44829  0.12197000000000008  1.0000
  O   O31       1.0  0.44829  0.55456  0.12197000000000008  1.0000
  O   O32       1.0  0.55171  0.44544  0.12197000000000008  1.0000
  O   O33       1.0  0.66738  0.9619899999999999  0.060349999999999994  1.0000
  O   O34       1.0  0.33261999999999997  0.03801  0.060349999999999994  1.0000
  O   O35       1.0  0.03801  0.66738  0.060349999999999994  1.0000
  O   O36       1.0  0.9619899999999999  0.33261999999999997  0.060349999999999994  1.0000
  O   O37       1.0  0.16738000000000008  0.46199  0.56035  1.0000
  O   O38       1.0  0.83262  0.5380099999999999  0.56035  1.0000
  O   O39       1.0  0.5380099999999999  0.16738000000000008  0.56035  1.0000
  O   O40       1.0  0.46199  0.83262  0.56035  1.0000
  O   O41       1.0  0.33261999999999997  0.03801  0.93965  1.0000
  O   O42       1.0  0.66738  0.9619899999999999  0.93965  1.0000
  O   O43       1.0  0.9619899999999999  0.33261999999999997  0.93965  1.0000
  O   O44       1.0  0.03801  0.66738  0.93965  1.0000
  O   O45       1.0  0.83262  0.5380099999999999  0.43964999999999993  1.0000
  O   O46       1.0  0.16738000000000008  0.46199  0.43964999999999993  1.0000
  O   O47       1.0  0.46199  0.83262  0.43964999999999993  1.0000
  O   O48       1.0  0.5380099999999999  0.16738000000000008  0.43964999999999993  1.0000
  O   O49       1.0  0.652  0.1716  0.0  1.0000
  O   O50       1.0  0.348  0.8284  0.0  1.0000
  O   O51       1.0  0.8284  0.652  0.0  1.0000
  O   O52       1.0  0.1716  0.348  0.0  1.0000
  O   O53       1.0  0.15200000000000014  0.6715999999999999  0.5  1.0000
  O   O54       1.0  0.8479999999999999  0.3284  0.5  1.0000
  O   O55       1.0  0.3284  0.15200000000000014  0.5  1.0000
  O   O56       1.0  0.6715999999999999  0.8479999999999999  0.5  1.0000
  O   O57       1.0  0.91271  0.09174  0.34566  1.0000
  O   O58       1.0  0.08728999999999998  0.90826  0.34566  1.0000
  O   O59       1.0  0.90826  0.91271  0.34566  1.0000
  O   O60       1.0  0.09174  0.08728999999999998  0.34566  1.0000
  O   O61       1.0  0.4127100000000001  0.59174  0.84566  1.0000
  O   O62       1.0  0.5872899999999999  0.40826  0.84566  1.0000
  O   O63       1.0  0.40826  0.4127100000000001  0.84566  1.0000
  O   O64       1.0  0.59174  0.5872899999999999  0.84566  1.0000
  O   O65       1.0  0.08728999999999998  0.90826  0.6543399999999999  1.0000
  O   O66       1.0  0.91271  0.09174  0.6543399999999999  1.0000
  O   O67       1.0  0.09174  0.08728999999999998  0.6543399999999999  1.0000
  O   O68       1.0  0.90826  0.91271  0.6543399999999999  1.0000
  O   O69       1.0  0.5872899999999999  0.40826  0.15433999999999995  1.0000
  O   O70       1.0  0.4127100000000001  0.59174  0.15433999999999995  1.0000
  O   O71       1.0  0.59174  0.5872899999999999  0.15433999999999995  1.0000
  O   O72       1.0  0.40826  0.4127100000000001  0.15433999999999995  1.0000
  O   O73       1.0  0.74262  0.07145  0.21367  1.0000
  O   O74       1.0  0.25738000000000005  0.9285499999999999  0.21367  1.0000
  O   O75       1.0  0.9285499999999999  0.74262  0.21367  1.0000
  O   O76       1.0  0.07145  0.25738000000000005  0.21367  1.0000
  O   O77       1.0  0.24262000000000003  0.5714499999999999  0.71367  1.0000
  O   O78       1.0  0.75738  0.42855  0.71367  1.0000
  O   O79       1.0  0.42855  0.24262000000000003  0.71367  1.0000
  O   O80       1.0  0.5714499999999999  0.75738  0.71367  1.0000
  O   O81       1.0  0.25738000000000005  0.9285499999999999  0.78633  1.0000
  O   O82       1.0  0.74262  0.07145  0.78633  1.0000
  O   O83       1.0  0.07145  0.25738000000000005  0.78633  1.0000
  O   O84       1.0  0.9285499999999999  0.74262  0.78633  1.0000
  O   O85       1.0  0.75738  0.42855  0.28633  1.0000
  O   O86       1.0  0.24262000000000003  0.5714499999999999  0.28633  1.0000
  O   O87       1.0  0.5714499999999999  0.75738  0.28633  1.0000
  O   O88       1.0  0.42855  0.24262000000000003  0.28633  1.0000
  O   O89       1.0  0.7708  0.015349999999999997  0.094  1.0000
  O   O90       1.0  0.22919999999999996  0.9846499999999999  0.094  1.0000
  O   O91       1.0  0.9846499999999999  0.7708  0.094  1.0000
  O   O92       1.0  0.015349999999999997  0.22919999999999996  0.094  1.0000
  O   O93       1.0  0.27079999999999993  0.51535  0.594  1.0000
  O   O94       1.0  0.7292  0.48465  0.594  1.0000
  O   O95       1.0  0.48465  0.27079999999999993  0.594  1.0000
  O   O96       1.0  0.51535  0.7292  0.594  1.0000
  O   O97       1.0  0.22919999999999996  0.9846499999999999  0.906  1.0000
  O   O98       1.0  0.7708  0.015349999999999997  0.906  1.0000
  O   O99       1.0  0.015349999999999997  0.22919999999999996  0.906  1.0000
  O   O100      1.0  0.9846499999999999  0.7708  0.906  1.0000
  O   O101      1.0  0.7292  0.48465  0.40599999999999997  1.0000
  O   O102      1.0  0.27079999999999993  0.51535  0.40599999999999997  1.0000
  O   O103      1.0  0.51535  0.7292  0.40599999999999997  1.0000
  O   O104      1.0  0.48465  0.27079999999999993  0.40599999999999997  1.0000
  O   O105      1.0  0.84469  0.00446  0.39953  1.0000
  O   O106      1.0  0.15530999999999995  0.99554  0.39953  1.0000
  O   O107      1.0  0.99554  0.84469  0.39953  1.0000
  O   O108      1.0  0.00446  0.15530999999999995  0.39953  1.0000
  O   O109      1.0  0.3446899999999999  0.50446  0.8995299999999999  1.0000
  O   O110      1.0  0.65531  0.4955399999999999  0.8995299999999999  1.0000
  O   O111      1.0  0.4955399999999999  0.3446899999999999  0.8995299999999999  1.0000
  O   O112      1.0  0.50446  0.65531  0.8995299999999999  1.0000
  O   O113      1.0  0.15530999999999995  0.99554  0.6004700000000001  1.0000
  O   O114      1.0  0.84469  0.00446  0.6004700000000001  1.0000
  O   O115      1.0  0.00446  0.15530999999999995  0.6004700000000001  1.0000
  O   O116      1.0  0.99554  0.84469  0.6004700000000001  1.0000
  O   O117      1.0  0.65531  0.4955399999999999  0.10047  1.0000
  O   O118      1.0  0.3446899999999999  0.50446  0.10047  1.0000
  O   O119      1.0  0.50446  0.65531  0.10047  1.0000
  O   O120      1.0  0.4955399999999999  0.3446899999999999  0.10047  1.0000
  O   O121      1.0  0.6684899999999998  0.06724  0.0594  1.0000
  O   O122      1.0  0.3315100000000001  0.93276  0.0594  1.0000
  O   O123      1.0  0.93276  0.6684899999999998  0.0594  1.0000
  O   O124      1.0  0.06724  0.3315100000000001  0.0594  1.0000
  O   O125      1.0  0.1684899999999998  0.56724  0.5593999999999999  1.0000
  O   O126      1.0  0.8315100000000001  0.43276  0.5593999999999999  1.0000
  O   O127      1.0  0.43276  0.1684899999999998  0.5593999999999999  1.0000
  O   O128      1.0  0.56724  0.8315100000000001  0.5593999999999999  1.0000
  O   O129      1.0  0.3315100000000001  0.93276  0.9406  1.0000
  O   O130      1.0  0.6684899999999998  0.06724  0.9406  1.0000
  O   O131      1.0  0.06724  0.3315100000000001  0.9406  1.0000
  O   O132      1.0  0.93276  0.6684899999999998  0.9406  1.0000
  O   O133      1.0  0.8315100000000001  0.43276  0.4406  1.0000
  O   O134      1.0  0.1684899999999998  0.56724  0.4406  1.0000
  O   O135      1.0  0.56724  0.8315100000000001  0.4406  1.0000
  O   O136      1.0  0.43276  0.1684899999999998  0.4406  1.0000
  O   O137      1.0  0.64765  0.012699999999999996  0.17687999999999998  1.0000
  O   O138      1.0  0.35235  0.9873  0.17687999999999998  1.0000
  O   O139      1.0  0.9873  0.64765  0.17687999999999998  1.0000
  O   O140      1.0  0.012699999999999996  0.35235  0.17687999999999998  1.0000
  O   O141      1.0  0.14765000000000006  0.5127  0.6768799999999999  1.0000
  O   O142      1.0  0.85235  0.4873  0.6768799999999999  1.0000
  O   O143      1.0  0.4873  0.14765000000000006  0.6768799999999999  1.0000
  O   O144      1.0  0.5127  0.85235  0.6768799999999999  1.0000
  O   O145      1.0  0.35235  0.9873  0.8231200000000001  1.0000
  O   O146      1.0  0.64765  0.012699999999999996  0.8231200000000001  1.0000
  O   O147      1.0  0.012699999999999996  0.35235  0.8231200000000001  1.0000
  O   O148      1.0  0.9873  0.64765  0.8231200000000001  1.0000
  O   O149      1.0  0.85235  0.4873  0.32311999999999996  1.0000
  O   O150      1.0  0.14765000000000006  0.5127  0.32311999999999996  1.0000
  O   O151      1.0  0.5127  0.85235  0.32311999999999996  1.0000
  O   O152      1.0  0.4873  0.14765000000000006  0.32311999999999996  1.0000
  O   O153      1.0  0.9196499999999999  0.0012399999999999996  0.25888  1.0000
  O   O154      1.0  0.08035000000000013  0.99876  0.25888  1.0000
  O   O155      1.0  0.99876  0.9196499999999999  0.25888  1.0000
  O   O156      1.0  0.0012399999999999996  0.08035000000000013  0.25888  1.0000
  O   O157      1.0  0.4196499999999998  0.50124  0.7588799999999999  1.0000
  O   O158      1.0  0.5803500000000001  0.49876  0.7588799999999999  1.0000
  O   O159      1.0  0.49876  0.4196499999999998  0.7588799999999999  1.0000
  O   O160      1.0  0.50124  0.5803500000000001  0.7588799999999999  1.0000
  O   O161      1.0  0.08035000000000013  0.99876  0.74112  1.0000
  O   O162      1.0  0.9196499999999999  0.0012399999999999996  0.74112  1.0000
  O   O163      1.0  0.0012399999999999996  0.08035000000000013  0.74112  1.0000
  O   O164      1.0  0.99876  0.9196499999999999  0.74112  1.0000
  O   O165      1.0  0.5803500000000001  0.49876  0.24112  1.0000
  O   O166      1.0  0.4196499999999998  0.50124  0.24112  1.0000
  O   O167      1.0  0.50124  0.5803500000000001  0.24112  1.0000
  O   O168      1.0  0.49876  0.4196499999999998  0.24112  1.0000
  O   O169      1.0  0.7709  0.9349  0.0  1.0000
  O   O170      1.0  0.22909999999999997  0.06509999999999999  0.0  1.0000
  O   O171      1.0  0.06509999999999999  0.7709  0.0  1.0000
  O   O172      1.0  0.9349  0.22909999999999997  0.0  1.0000
  O   O173      1.0  0.27090000000000014  0.4349  0.5  1.0000
  O   O174      1.0  0.7291  0.5650999999999999  0.5  1.0000
  O   O175      1.0  0.5650999999999999  0.27090000000000014  0.5  1.0000
  O   O176      1.0  0.4349  0.7291  0.5  1.0000
  O   O177      1.0  0.69325  0.10423999999999997  0.10360999999999997  1.0000
  O   O178      1.0  0.30674999999999997  0.89576  0.10360999999999997  1.0000
  O   O179      1.0  0.89576  0.69325  0.10360999999999997  1.0000
  O   O180      1.0  0.10423999999999997  0.30674999999999997  0.10360999999999997  1.0000
  O   O181      1.0  0.19324999999999992  0.60424  0.60361  1.0000
  O   O182      1.0  0.80675  0.39576  0.60361  1.0000
  O   O183      1.0  0.39576  0.19324999999999992  0.60361  1.0000
  O   O184      1.0  0.60424  0.80675  0.60361  1.0000
  O   O185      1.0  0.30674999999999997  0.89576  0.89639  1.0000
  O   O186      1.0  0.69325  0.10423999999999997  0.89639  1.0000
  O   O187      1.0  0.10423999999999997  0.30674999999999997  0.89639  1.0000
  O   O188      1.0  0.89576  0.69325  0.89639  1.0000
  O   O189      1.0  0.80675  0.39576  0.39639  1.0000
  O   O190      1.0  0.19324999999999992  0.60424  0.39639  1.0000
  O   O191      1.0  0.60424  0.80675  0.39639  1.0000
  O   O192      1.0  0.39576  0.19324999999999992  0.39639  1.0000
  O   O193      1.0  0.7714  0.09249999999999999  0.0  1.0000
  O   O194      1.0  0.22860000000000003  0.9074999999999999  0.0  1.0000
  O   O195      1.0  0.9074999999999999  0.7714  0.0  1.0000
  O   O196      1.0  0.09249999999999999  0.22860000000000003  0.0  1.0000
  O   O197      1.0  0.27139999999999986  0.5925  0.5  1.0000
  O   O198      1.0  0.7286  0.40750000000000003  0.5  1.0000
  O   O199      1.0  0.40750000000000003  0.27139999999999986  0.5  1.0000
  O   O200      1.0  0.5925  0.7286  0.5  1.0000
  O   O201      1.0  0.8178199999999999  0.94703  0.2862  1.0000
  O   O202      1.0  0.18218000000000012  0.052969999999999996  0.2862  1.0000
  O   O203      1.0  0.052969999999999996  0.8178199999999999  0.2862  1.0000
  O   O204      1.0  0.94703  0.18218000000000012  0.2862  1.0000
  O   O205      1.0  0.31781999999999977  0.4470299999999999  0.7861999999999999  1.0000
  O   O206      1.0  0.6821800000000001  0.55297  0.7861999999999999  1.0000
  O   O207      1.0  0.55297  0.31781999999999977  0.7861999999999999  1.0000
  O   O208      1.0  0.4470299999999999  0.6821800000000001  0.7861999999999999  1.0000
  O   O209      1.0  0.18218000000000012  0.052969999999999996  0.7138  1.0000
  O   O210      1.0  0.8178199999999999  0.94703  0.7138  1.0000
  O   O211      1.0  0.94703  0.18218000000000012  0.7138  1.0000
  O   O212      1.0  0.052969999999999996  0.8178199999999999  0.7138  1.0000
  O   O213      1.0  0.6821800000000001  0.55297  0.21379999999999996  1.0000
  O   O214      1.0  0.31781999999999977  0.4470299999999999  0.21379999999999996  1.0000
  O   O215      1.0  0.4470299999999999  0.6821800000000001  0.21379999999999996  1.0000
  O   O216      1.0  0.55297  0.31781999999999977  0.21379999999999996  1.0000
  O   O217      1.0  0.7311999999999997  0.9001099999999999  0.2992  1.0000
  O   O218      1.0  0.26880000000000015  0.09988999999999998  0.2992  1.0000
  O   O219      1.0  0.09988999999999998  0.7311999999999997  0.2992  1.0000
  O   O220      1.0  0.9001099999999999  0.26880000000000015  0.2992  1.0000
  O   O221      1.0  0.23119999999999982  0.40011  0.7992  1.0000
  O   O222      1.0  0.7688  0.59989  0.7992  1.0000
  O   O223      1.0  0.59989  0.23119999999999982  0.7992  1.0000
  O   O224      1.0  0.40011  0.7688  0.7992  1.0000
  O   O225      1.0  0.26880000000000015  0.09988999999999998  0.7008  1.0000
  O   O226      1.0  0.7311999999999997  0.9001099999999999  0.7008  1.0000
  O   O227      1.0  0.9001099999999999  0.26880000000000015  0.7008  1.0000
  O   O228      1.0  0.09988999999999998  0.7311999999999997  0.7008  1.0000
  O   O229      1.0  0.7688  0.59989  0.20079999999999998  1.0000
  O   O230      1.0  0.23119999999999982  0.40011  0.20079999999999998  1.0000
  O   O231      1.0  0.40011  0.7688  0.20079999999999998  1.0000
  O   O232      1.0  0.59989  0.23119999999999982  0.20079999999999998  1.0000
  O   O233      1.0  0.742  0.11207  0.3194  1.0000
  O   O234      1.0  0.258  0.8879299999999999  0.3194  1.0000
  O   O235      1.0  0.8879299999999999  0.742  0.3194  1.0000
  O   O236      1.0  0.11207  0.258  0.3194  1.0000
  O   O237      1.0  0.24199999999999997  0.6120699999999999  0.8194  1.0000
  O   O238      1.0  0.7579999999999999  0.38793  0.8194  1.0000
  O   O239      1.0  0.38793  0.24199999999999997  0.8194  1.0000
  O   O240      1.0  0.6120699999999999  0.7579999999999999  0.8194  1.0000
  O   O241      1.0  0.258  0.8879299999999999  0.6806  1.0000
  O   O242      1.0  0.742  0.11207  0.6806  1.0000
  O   O243      1.0  0.11207  0.258  0.6806  1.0000
  O   O244      1.0  0.8879299999999999  0.742  0.6806  1.0000
  O   O245      1.0  0.7579999999999999  0.38793  0.18059999999999998  1.0000
  O   O246      1.0  0.24199999999999997  0.6120699999999999  0.18059999999999998  1.0000
  O   O247      1.0  0.6120699999999999  0.7579999999999999  0.18059999999999998  1.0000
  O   O248      1.0  0.38793  0.24199999999999997  0.18059999999999998  1.0000
  O   O249      1.0  0.6940499999999998  0.92452  0.1026  1.0000
  O   O250      1.0  0.30595000000000017  0.07548  0.1026  1.0000
  O   O251      1.0  0.07548  0.6940499999999998  0.1026  1.0000
  O   O252      1.0  0.92452  0.30595000000000017  0.1026  1.0000
  O   O253      1.0  0.19404999999999983  0.42451999999999995  0.6026  1.0000
  O   O254      1.0  0.8059500000000002  0.57548  0.6026  1.0000
  O   O255      1.0  0.57548  0.19404999999999983  0.6026  1.0000
  O   O256      1.0  0.42451999999999995  0.8059500000000002  0.6026  1.0000
  O   O257      1.0  0.30595000000000017  0.07548  0.8973999999999999  1.0000
  O   O258      1.0  0.6940499999999998  0.92452  0.8973999999999999  1.0000
  O   O259      1.0  0.92452  0.30595000000000017  0.8973999999999999  1.0000
  O   O260      1.0  0.07548  0.6940499999999998  0.8973999999999999  1.0000
  O   O261      1.0  0.8059500000000002  0.57548  0.3973999999999999  1.0000
  O   O262      1.0  0.19404999999999983  0.42451999999999995  0.3973999999999999  1.0000
  O   O263      1.0  0.42451999999999995  0.8059500000000002  0.3973999999999999  1.0000
  O   O264      1.0  0.57548  0.19404999999999983  0.3973999999999999  1.0000
  O   O265      1.0  0.74847  0.9557100000000001  0.2051  1.0000
  O   O266      1.0  0.25153  0.044289999999999996  0.2051  1.0000
  O   O267      1.0  0.044289999999999996  0.74847  0.2051  1.0000
  O   O268      1.0  0.9557100000000001  0.25153  0.2051  1.0000
  O   O269      1.0  0.24846999999999997  0.45570999999999995  0.7051000000000001  1.0000
  O   O270      1.0  0.75153  0.5442899999999999  0.7051000000000001  1.0000
  O   O271      1.0  0.5442899999999999  0.24846999999999997  0.7051000000000001  1.0000
  O   O272      1.0  0.45570999999999995  0.75153  0.7051000000000001  1.0000
  O   O273      1.0  0.25153  0.044289999999999996  0.7948999999999998  1.0000
  O   O274      1.0  0.74847  0.9557100000000001  0.7948999999999998  1.0000
  O   O275      1.0  0.9557100000000001  0.25153  0.7948999999999998  1.0000
  O   O276      1.0  0.044289999999999996  0.74847  0.7948999999999998  1.0000
  O   O277      1.0  0.75153  0.5442899999999999  0.2949  1.0000
  O   O278      1.0  0.24846999999999997  0.45570999999999995  0.2949  1.0000
  O   O279      1.0  0.45570999999999995  0.75153  0.2949  1.0000
  O   O280      1.0  0.5442899999999999  0.24846999999999997  0.2949  1.0000
  O   O281      1.0  0.8075399999999999  0.7530399999999999  0.9336999999999999  1.0000
  O   O282      1.0  0.19246000000000008  0.24696  0.9336999999999999  1.0000
  O   O283      1.0  0.24696  0.8075399999999999  0.9336999999999999  1.0000
  O   O284      1.0  0.7530399999999999  0.19246000000000008  0.9336999999999999  1.0000
  O   O285      1.0  0.3075399999999999  0.25304  0.4337  1.0000
  O   O286      1.0  0.6924600000000001  0.7469600000000001  0.4337  1.0000
  O   O287      1.0  0.7469600000000001  0.3075399999999999  0.4337  1.0000
  O   O288      1.0  0.25304  0.6924600000000001  0.4337  1.0000
  O   O289      1.0  0.19246000000000008  0.24696  0.0663  1.0000
  O   O290      1.0  0.8075399999999999  0.7530399999999999  0.0663  1.0000
  O   O291      1.0  0.7530399999999999  0.19246000000000008  0.0663  1.0000
  O   O292      1.0  0.24696  0.8075399999999999  0.0663  1.0000
  O   O293      1.0  0.6924600000000001  0.7469600000000001  0.5662999999999999  1.0000
  O   O294      1.0  0.3075399999999999  0.25304  0.5662999999999999  1.0000
  O   O295      1.0  0.25304  0.6924600000000001  0.5662999999999999  1.0000
  O   O296      1.0  0.7469600000000001  0.3075399999999999  0.5662999999999999  1.0000
  O   O297      1.0  0.7497499999999998  0.83397  0.9366  1.0000
  O   O298      1.0  0.2502500000000001  0.16603  0.9366  1.0000
  O   O299      1.0  0.16603  0.7497499999999998  0.9366  1.0000
  O   O300      1.0  0.83397  0.2502500000000001  0.9366  1.0000
  O   O301      1.0  0.24974999999999992  0.33397  0.4366  1.0000
  O   O302      1.0  0.7502500000000001  0.66603  0.4366  1.0000
  O   O303      1.0  0.66603  0.24974999999999992  0.4366  1.0000
  O   O304      1.0  0.33397  0.7502500000000001  0.4366  1.0000
  O   O305      1.0  0.2502500000000001  0.16603  0.0634  1.0000
  O   O306      1.0  0.7497499999999998  0.83397  0.0634  1.0000
  O   O307      1.0  0.83397  0.2502500000000001  0.0634  1.0000
  O   O308      1.0  0.16603  0.7497499999999998  0.0634  1.0000
  O   O309      1.0  0.7502500000000001  0.66603  0.5634  1.0000
  O   O310      1.0  0.24974999999999992  0.33397  0.5634  1.0000
  O   O311      1.0  0.33397  0.7502500000000001  0.5634  1.0000
  O   O312      1.0  0.66603  0.24974999999999992  0.5634  1.0000
  O   O313      1.0  0.6497  0.8590999999999999  0.0  1.0000
  O   O314      1.0  0.35029999999999994  0.1409  0.0  1.0000
  O   O315      1.0  0.1409  0.6497  0.0  1.0000
  O   O316      1.0  0.8590999999999999  0.35029999999999994  0.0  1.0000
  O   O317      1.0  0.14970000000000017  0.3590999999999999  0.5  1.0000
  O   O318      1.0  0.8503  0.6408999999999999  0.5  1.0000
  O   O319      1.0  0.6408999999999999  0.14970000000000017  0.5  1.0000
  O   O320      1.0  0.3590999999999999  0.8503  0.5  1.0000
  O   O321      1.0  0.7226999999999999  0.7543999999999998  0.8759  1.0000
  O   O322      1.0  0.2773000000000001  0.24559999999999996  0.8759  1.0000
  O   O323      1.0  0.24559999999999996  0.7226999999999999  0.8759  1.0000
  O   O324      1.0  0.7543999999999998  0.2773000000000001  0.8759  1.0000
  O   O325      1.0  0.2226999999999999  0.2544  0.3759  1.0000
  O   O326      1.0  0.7773000000000001  0.7456  0.3759  1.0000
  O   O327      1.0  0.7456  0.2226999999999999  0.3759  1.0000
  O   O328      1.0  0.2544  0.7773000000000001  0.3759  1.0000
  O   O329      1.0  0.2773000000000001  0.24559999999999996  0.1241  1.0000
  O   O330      1.0  0.7226999999999999  0.7543999999999998  0.1241  1.0000
  O   O331      1.0  0.7543999999999998  0.2773000000000001  0.1241  1.0000
  O   O332      1.0  0.24559999999999996  0.7226999999999999  0.1241  1.0000
  O   O333      1.0  0.7773000000000001  0.7456  0.6241  1.0000
  O   O334      1.0  0.2226999999999999  0.2544  0.6241  1.0000
  O   O335      1.0  0.2544  0.7773000000000001  0.6241  1.0000
  O   O336      1.0  0.7456  0.2226999999999999  0.6241  1.0000
  C   C1        1.0  0.7198999999999998  0.7484  0.0  1.0000
  C   C2        1.0  0.2801000000000001  0.2516  0.0  1.0000
  C   C3        1.0  0.2516  0.7198999999999998  0.0  1.0000
  C   C4        1.0  0.7484  0.2801000000000001  0.0  1.0000
  C   C5        1.0  0.21989999999999998  0.2484  0.5  1.0000
  C   C6        1.0  0.7801000000000001  0.7516  0.5  1.0000
  C   C7        1.0  0.7516  0.21989999999999998  0.5  1.0000
  C   C8        1.0  0.2484  0.7801000000000001  0.5  1.0000
  C   C9        1.0  0.7320999999999999  0.0063  0.3105  1.0000
  C   C10       1.0  0.26790000000000014  0.9936999999999999  0.3105  1.0000
  C   C11       1.0  0.9936999999999999  0.7320999999999999  0.3105  1.0000
  C   C12       1.0  0.0063  0.26790000000000014  0.3105  1.0000
  C   C13       1.0  0.23209999999999997  0.5063  0.8105  1.0000
  C   C14       1.0  0.7679000000000001  0.49369999999999997  0.8105  1.0000
  C   C15       1.0  0.49369999999999997  0.23209999999999997  0.8105  1.0000
  C   C16       1.0  0.5063  0.7679000000000001  0.8105  1.0000
  C   C17       1.0  0.26790000000000014  0.9936999999999999  0.6895  1.0000
  C   C18       1.0  0.7320999999999999  0.0063  0.6895  1.0000
  C   C19       1.0  0.0063  0.26790000000000014  0.6895  1.0000
  C   C20       1.0  0.9936999999999999  0.7320999999999999  0.6895  1.0000
  C   C21       1.0  0.7679000000000001  0.49369999999999997  0.1895  1.0000
  C   C22       1.0  0.23209999999999997  0.5063  0.1895  1.0000
  C   C23       1.0  0.5063  0.7679000000000001  0.1895  1.0000
  C   C24       1.0  0.49369999999999997  0.23209999999999997  0.1895  1.0000
