data_image0
_chemical_formula_structural       Zn4P8O24
_chemical_formula_sum              "Zn4 P8 O24"
_cell_length_a       9.734
_cell_length_b       8.889
_cell_length_c       4.962999999999999
_cell_angle_alpha    90.0
_cell_angle_beta     108.49
_cell_angle_gamma    90.0

_space_group_name_H-M_alt    "P 1"
_space_group_IT_number       1

loop_
  _space_group_symop_operation_xyz
  'x, y, z'

loop_
  _atom_site_type_symbol
  _atom_site_label
  _atom_site_symmetry_multiplicity
  _atom_site_fract_x
  _atom_site_fract_y
  _atom_site_fract_z
  _atom_site_occupancy
  Zn  Zn1       1.0  0.0  0.11824999999999998  0.25  1.0000
  Zn  Zn2       1.0  0.0  0.88175  0.75  1.0000
  Zn  Zn3       1.0  0.5  0.61825  0.25  1.0000
  Zn  Zn4       1.0  0.5  0.38175000000000003  0.75  1.0000
  P   P1        1.0  0.21227  0.41064  0.23842  1.0000
  P   P2        1.0  0.78773  0.41064  0.2615800000000001  1.0000
  P   P3        1.0  0.78773  0.58936  0.7615800000000001  1.0000
  P   P4        1.0  0.21227  0.58936  0.73842  1.0000
  P   P5        1.0  0.71227  0.91064  0.23842  1.0000
  P   P6        1.0  0.28773000000000004  0.91064  0.2615800000000001  1.0000
  P   P7        1.0  0.28773000000000004  0.08936  0.7615800000000001  1.0000
  P   P8        1.0  0.71227  0.08936  0.73842  1.0000
  O   O1        1.0  0.35270000000000007  0.9947999999999999  0.0451  1.0000
  O   O2        1.0  0.6473  0.9947999999999999  0.45489999999999997  1.0000
  O   O3        1.0  0.6473  0.0052  0.9549  1.0000
  O   O4        1.0  0.35270000000000007  0.0052  0.5451000000000001  1.0000
  O   O5        1.0  0.8527000000000001  0.4948  0.0451  1.0000
  O   O6        1.0  0.14729999999999993  0.4948  0.45489999999999997  1.0000
  O   O7        1.0  0.14729999999999993  0.5052  0.9549  1.0000
  O   O8        1.0  0.8527000000000001  0.5052  0.5451000000000001  1.0000
  O   O9        1.0  0.374  0.427  0.3403  1.0000
  O   O10       1.0  0.626  0.427  0.1597  1.0000
  O   O11       1.0  0.626  0.573  0.6597  1.0000
  O   O12       1.0  0.374  0.573  0.8403  1.0000
  O   O13       1.0  0.8740000000000001  0.927  0.3403  1.0000
  O   O14       1.0  0.126  0.927  0.1597  1.0000
  O   O15       1.0  0.126  0.07300000000000001  0.6597  1.0000
  O   O16       1.0  0.8740000000000001  0.07300000000000001  0.8403  1.0000
  O   O17       1.0  0.14900000000000005  0.2581  0.18950000000000006  1.0000
  O   O18       1.0  0.851  0.2581  0.31050000000000005  1.0000
  O   O19       1.0  0.851  0.7419  0.8105  1.0000
  O   O20       1.0  0.14900000000000005  0.7419  0.6895000000000001  1.0000
  O   O21       1.0  0.649  0.7581  0.18950000000000006  1.0000
  O   O22       1.0  0.351  0.7581  0.31050000000000005  1.0000
  O   O23       1.0  0.351  0.2419  0.8105  1.0000
  O   O24       1.0  0.649  0.2419  0.6895000000000001  1.0000
