data_image0
_chemical_formula_structural       V8Hf4
_chemical_formula_sum              "V8 Hf4"
_cell_length_a       5.20713
_cell_length_b       5.20713
_cell_length_c       7.40141
_cell_angle_alpha    90.0
_cell_angle_beta     90.0
_cell_angle_gamma    90.0

_space_group_name_H-M_alt    "P 1"
_space_group_IT_number       1

loop_
  _space_group_symop_operation_xyz
  'x, y, z'

loop_
  _atom_site_type_symbol
  _atom_site_label
  _atom_site_symmetry_multiplicity
  _atom_site_fract_x
  _atom_site_fract_y
  _atom_site_fract_z
  _atom_site_occupancy
  V   V1        1.0  0.0  0.0  0.0  1.0000
  V   V2        1.0  0.25  0.75  0.25  1.0000
  V   V3        1.0  0.5  0.0  0.5  1.0000
  V   V4        1.0  0.25  0.25  0.75  1.0000
  V   V5        1.0  0.75  0.25  0.75  1.0000
  V   V6        1.0  0.75  0.75  0.25  1.0000
  V   V7        1.0  0.5  0.5  0.5  1.0000
  V   V8        1.0  0.0  0.5  0.0  1.0000
  Hf  Hf1       1.0  0.0  0.25  0.375  1.0000
  Hf  Hf2       1.0  0.0  0.75  0.625  1.0000
  Hf  Hf3       1.0  0.5  0.75  0.875  1.0000
  Hf  Hf4       1.0  0.5  0.25  0.125  1.0000
