data_image0
_chemical_formula_structural       P28Mn24Ni64
_chemical_formula_sum              "P28 Mn24 Ni64"
_cell_length_a       11.031
_cell_length_b       11.031
_cell_length_c       11.031
_cell_angle_alpha    90.0
_cell_angle_beta     90.0
_cell_angle_gamma    90.0

_space_group_name_H-M_alt    "P 1"
_space_group_IT_number       1

loop_
  _space_group_symop_operation_xyz
  'x, y, z'

loop_
  _atom_site_type_symbol
  _atom_site_label
  _atom_site_symmetry_multiplicity
  _atom_site_fract_x
  _atom_site_fract_y
  _atom_site_fract_z
  _atom_site_occupancy
  P   P1        1.0  0.5  0.5  0.5  1.0000
  P   P2        1.0  0.5  0.0  0.0  1.0000
  P   P3        1.0  0.0  0.5  0.0  1.0000
  P   P4        1.0  0.0  0.0  0.5  1.0000
  P   P5        1.0  0.0  0.25  0.25  1.0000
  P   P6        1.0  0.25  0.25  0.0  1.0000
  P   P7        1.0  0.25  0.0  0.25  1.0000
  P   P8        1.0  0.0  0.75  0.75  1.0000
  P   P9        1.0  0.25  0.75  0.0  1.0000
  P   P10       1.0  0.25  0.0  0.75  1.0000
  P   P11       1.0  0.0  0.25  0.75  1.0000
  P   P12       1.0  0.75  0.25  0.0  1.0000
  P   P13       1.0  0.75  0.0  0.75  1.0000
  P   P14       1.0  0.0  0.75  0.25  1.0000
  P   P15       1.0  0.75  0.75  0.0  1.0000
  P   P16       1.0  0.75  0.0  0.25  1.0000
  P   P17       1.0  0.5  0.25  0.75  1.0000
  P   P18       1.0  0.5  0.75  0.25  1.0000
  P   P19       1.0  0.25  0.75  0.5  1.0000
  P   P20       1.0  0.75  0.25  0.5  1.0000
  P   P21       1.0  0.25  0.5  0.75  1.0000
  P   P22       1.0  0.75  0.5  0.25  1.0000
  P   P23       1.0  0.25  0.25  0.5  1.0000
  P   P24       1.0  0.75  0.75  0.5  1.0000
  P   P25       1.0  0.25  0.5  0.25  1.0000
  P   P26       1.0  0.75  0.5  0.75  1.0000
  P   P27       1.0  0.5  0.25  0.25  1.0000
  P   P28       1.0  0.5  0.75  0.75  1.0000
  Mn  Mn1       1.0  0.199  0.0  0.0  1.0000
  Mn  Mn2       1.0  0.0  0.0  0.199  1.0000
  Mn  Mn3       1.0  0.0  0.199  0.0  1.0000
  Mn  Mn4       1.0  0.0  0.0  0.8009999999999998  1.0000
  Mn  Mn5       1.0  0.0  0.8009999999999998  0.0  1.0000
  Mn  Mn6       1.0  0.8009999999999998  0.0  0.0  1.0000
  Mn  Mn7       1.0  0.199  0.5  0.5  1.0000
  Mn  Mn8       1.0  0.6990000000000001  0.0  0.5  1.0000
  Mn  Mn9       1.0  0.6990000000000001  0.5  0.0  1.0000
  Mn  Mn10      1.0  0.0  0.5  0.6990000000000001  1.0000
  Mn  Mn11      1.0  0.5  0.0  0.6990000000000001  1.0000
  Mn  Mn12      1.0  0.5  0.5  0.199  1.0000
  Mn  Mn13      1.0  0.0  0.6990000000000001  0.5  1.0000
  Mn  Mn14      1.0  0.5  0.199  0.5  1.0000
  Mn  Mn15      1.0  0.5  0.6990000000000001  0.0  1.0000
  Mn  Mn16      1.0  0.0  0.5  0.301  1.0000
  Mn  Mn17      1.0  0.5  0.0  0.301  1.0000
  Mn  Mn18      1.0  0.5  0.5  0.8009999999999998  1.0000
  Mn  Mn19      1.0  0.0  0.301  0.5  1.0000
  Mn  Mn20      1.0  0.5  0.8009999999999998  0.5  1.0000
  Mn  Mn21      1.0  0.5  0.301  0.0  1.0000
  Mn  Mn22      1.0  0.8009999999999998  0.5  0.5  1.0000
  Mn  Mn23      1.0  0.301  0.0  0.5  1.0000
  Mn  Mn24      1.0  0.301  0.5  0.0  1.0000
  Ni  Ni1       1.0  0.165  0.165  0.165  1.0000
  Ni  Ni2       1.0  0.165  0.8349999999999999  0.8349999999999999  1.0000
  Ni  Ni3       1.0  0.8349999999999999  0.165  0.8349999999999999  1.0000
  Ni  Ni4       1.0  0.8349999999999999  0.8349999999999999  0.165  1.0000
  Ni  Ni5       1.0  0.8349999999999999  0.8349999999999999  0.8349999999999999  1.0000
  Ni  Ni6       1.0  0.8349999999999999  0.165  0.165  1.0000
  Ni  Ni7       1.0  0.165  0.8349999999999999  0.165  1.0000
  Ni  Ni8       1.0  0.165  0.165  0.8349999999999999  1.0000
  Ni  Ni9       1.0  0.165  0.665  0.665  1.0000
  Ni  Ni10      1.0  0.665  0.165  0.665  1.0000
  Ni  Ni11      1.0  0.665  0.665  0.165  1.0000
  Ni  Ni12      1.0  0.165  0.33499999999999996  0.33499999999999996  1.0000
  Ni  Ni13      1.0  0.665  0.8349999999999999  0.33499999999999996  1.0000
  Ni  Ni14      1.0  0.665  0.33499999999999996  0.8349999999999999  1.0000
  Ni  Ni15      1.0  0.8349999999999999  0.665  0.33499999999999996  1.0000
  Ni  Ni16      1.0  0.33499999999999996  0.165  0.33499999999999996  1.0000
  Ni  Ni17      1.0  0.33499999999999996  0.665  0.8349999999999999  1.0000
  Ni  Ni18      1.0  0.8349999999999999  0.33499999999999996  0.665  1.0000
  Ni  Ni19      1.0  0.33499999999999996  0.8349999999999999  0.665  1.0000
  Ni  Ni20      1.0  0.33499999999999996  0.33499999999999996  0.165  1.0000
  Ni  Ni21      1.0  0.8349999999999999  0.33499999999999996  0.33499999999999996  1.0000
  Ni  Ni22      1.0  0.33499999999999996  0.8349999999999999  0.33499999999999996  1.0000
  Ni  Ni23      1.0  0.33499999999999996  0.33499999999999996  0.8349999999999999  1.0000
  Ni  Ni24      1.0  0.8349999999999999  0.665  0.665  1.0000
  Ni  Ni25      1.0  0.33499999999999996  0.165  0.665  1.0000
  Ni  Ni26      1.0  0.33499999999999996  0.665  0.165  1.0000
  Ni  Ni27      1.0  0.165  0.33499999999999996  0.665  1.0000
  Ni  Ni28      1.0  0.665  0.8349999999999999  0.665  1.0000
  Ni  Ni29      1.0  0.665  0.33499999999999996  0.165  1.0000
  Ni  Ni30      1.0  0.165  0.665  0.33499999999999996  1.0000
  Ni  Ni31      1.0  0.665  0.165  0.33499999999999996  1.0000
  Ni  Ni32      1.0  0.665  0.665  0.8349999999999999  1.0000
  Ni  Ni33      1.0  0.381  0.381  0.381  1.0000
  Ni  Ni34      1.0  0.381  0.619  0.619  1.0000
  Ni  Ni35      1.0  0.619  0.381  0.619  1.0000
  Ni  Ni36      1.0  0.619  0.619  0.381  1.0000
  Ni  Ni37      1.0  0.619  0.619  0.619  1.0000
  Ni  Ni38      1.0  0.619  0.381  0.381  1.0000
  Ni  Ni39      1.0  0.381  0.619  0.381  1.0000
  Ni  Ni40      1.0  0.381  0.381  0.619  1.0000
  Ni  Ni41      1.0  0.381  0.8809999999999999  0.8809999999999999  1.0000
  Ni  Ni42      1.0  0.8809999999999999  0.381  0.8809999999999999  1.0000
  Ni  Ni43      1.0  0.8809999999999999  0.8809999999999999  0.381  1.0000
  Ni  Ni44      1.0  0.381  0.119  0.119  1.0000
  Ni  Ni45      1.0  0.8809999999999999  0.619  0.119  1.0000
  Ni  Ni46      1.0  0.8809999999999999  0.119  0.619  1.0000
  Ni  Ni47      1.0  0.619  0.8809999999999999  0.119  1.0000
  Ni  Ni48      1.0  0.119  0.381  0.119  1.0000
  Ni  Ni49      1.0  0.119  0.8809999999999999  0.619  1.0000
  Ni  Ni50      1.0  0.619  0.119  0.8809999999999999  1.0000
  Ni  Ni51      1.0  0.119  0.619  0.8809999999999999  1.0000
  Ni  Ni52      1.0  0.119  0.119  0.381  1.0000
  Ni  Ni53      1.0  0.619  0.119  0.119  1.0000
  Ni  Ni54      1.0  0.119  0.619  0.119  1.0000
  Ni  Ni55      1.0  0.119  0.119  0.619  1.0000
  Ni  Ni56      1.0  0.619  0.8809999999999999  0.8809999999999999  1.0000
  Ni  Ni57      1.0  0.119  0.381  0.8809999999999999  1.0000
  Ni  Ni58      1.0  0.119  0.8809999999999999  0.381  1.0000
  Ni  Ni59      1.0  0.381  0.119  0.8809999999999999  1.0000
  Ni  Ni60      1.0  0.8809999999999999  0.619  0.8809999999999999  1.0000
  Ni  Ni61      1.0  0.8809999999999999  0.119  0.381  1.0000
  Ni  Ni62      1.0  0.381  0.8809999999999999  0.119  1.0000
  Ni  Ni63      1.0  0.8809999999999999  0.381  0.119  1.0000
  Ni  Ni64      1.0  0.8809999999999999  0.8809999999999999  0.619  1.0000
