data_image0
_chemical_formula_structural       N2Mn4
_chemical_formula_sum              "N2 Mn4"
_cell_length_a       4.68578
_cell_length_b       4.68578
_cell_length_c       2.97762
_cell_angle_alpha    90.0
_cell_angle_beta     90.0
_cell_angle_gamma    90.0

_space_group_name_H-M_alt    "P 1"
_space_group_IT_number       1

loop_
  _space_group_symop_operation_xyz
  'x, y, z'

loop_
  _atom_site_type_symbol
  _atom_site_label
  _atom_site_symmetry_multiplicity
  _atom_site_fract_x
  _atom_site_fract_y
  _atom_site_fract_z
  _atom_site_occupancy
  N   N1        1.0  0.0  0.0  0.0  1.0000
  N   N2        1.0  0.5  0.5  0.5  1.0000
  Mn  Mn1       1.0  0.2989  0.2989  0.0  0.6700
  Mn  Mn2       1.0  0.7011000000000001  0.7011000000000001  0.0  0.6700
  Mn  Mn3       1.0  0.7988999999999999  0.2011  0.5  0.6700
  Mn  Mn4       1.0  0.2011  0.7988999999999999  0.5  0.6700
  Li  Li1       1.0  0.2989  0.2989  0.0  0.3300
  Li  Li2       1.0  0.7011000000000001  0.7011000000000001  0.0  0.3300
  Li  Li3       1.0  0.7988999999999999  0.2011  0.5  0.3300
  Li  Li4       1.0  0.2011  0.7988999999999999  0.5  0.3300
