data_image0
_chemical_formula_structural       Ag4Cl4O16
_chemical_formula_sum              "Ag4 Cl4 O16"
_cell_length_a       6.92
_cell_length_b       6.92
_cell_length_c       6.92
_cell_angle_alpha    90.0
_cell_angle_beta     90.0
_cell_angle_gamma    90.0

_space_group_name_H-M_alt    "P 1"
_space_group_IT_number       1

loop_
  _space_group_symop_operation_xyz
  'x, y, z'

loop_
  _atom_site_type_symbol
  _atom_site_label
  _atom_site_symmetry_multiplicity
  _atom_site_fract_x
  _atom_site_fract_y
  _atom_site_fract_z
  _atom_site_occupancy
  Ag  Ag1       1.0  0.5  0.0  0.0  1.0000
  Ag  Ag2       1.0  0.0  0.0  0.5  1.0000
  Ag  Ag3       1.0  0.0  0.5  0.0  1.0000
  Ag  Ag4       1.0  0.5  0.5  0.5  1.0000
  Cl  Cl1       1.0  0.0  0.0  0.0  1.0000
  Cl  Cl2       1.0  0.0  0.5  0.5  1.0000
  Cl  Cl3       1.0  0.5  0.0  0.5  1.0000
  Cl  Cl4       1.0  0.5  0.5  0.0  1.0000
  O   O1        1.0  0.127  0.127  0.127  1.0000
  O   O2        1.0  0.127  0.873  0.873  1.0000
  O   O3        1.0  0.873  0.127  0.873  1.0000
  O   O4        1.0  0.873  0.873  0.127  1.0000
  O   O5        1.0  0.127  0.6270000000000001  0.6270000000000001  1.0000
  O   O6        1.0  0.6270000000000001  0.127  0.6270000000000001  1.0000
  O   O7        1.0  0.6270000000000001  0.6270000000000001  0.127  1.0000
  O   O8        1.0  0.127  0.37300000000000005  0.37300000000000005  1.0000
  O   O9        1.0  0.6270000000000001  0.873  0.37300000000000005  1.0000
  O   O10       1.0  0.6270000000000001  0.37300000000000005  0.873  1.0000
  O   O11       1.0  0.873  0.6270000000000001  0.37300000000000005  1.0000
  O   O12       1.0  0.37300000000000005  0.127  0.37300000000000005  1.0000
  O   O13       1.0  0.37300000000000005  0.6270000000000001  0.873  1.0000
  O   O14       1.0  0.873  0.37300000000000005  0.6270000000000001  1.0000
  O   O15       1.0  0.37300000000000005  0.873  0.6270000000000001  1.0000
  O   O16       1.0  0.37300000000000005  0.37300000000000005  0.127  1.0000
