data_image0
_chemical_formula_structural       Be4S4O32
_chemical_formula_sum              "Be4 S4 O32"
_cell_length_a       8.02
_cell_length_b       8.02
_cell_length_c       10.75
_cell_angle_alpha    90.0
_cell_angle_beta     90.0
_cell_angle_gamma    90.0

_space_group_name_H-M_alt    "P 1"
_space_group_IT_number       1

loop_
  _space_group_symop_operation_xyz
  'x, y, z'

loop_
  _atom_site_type_symbol
  _atom_site_label
  _atom_site_symmetry_multiplicity
  _atom_site_fract_x
  _atom_site_fract_y
  _atom_site_fract_z
  _atom_site_occupancy
  Be  Be1       1.0  0.0  0.0  0.25  1.0000
  Be  Be2       1.0  0.0  0.0  0.75  1.0000
  Be  Be3       1.0  0.5  0.5  0.75  1.0000
  Be  Be4       1.0  0.5  0.5  0.25  1.0000
  S   S1        1.0  0.0  0.5  0.0  1.0000
  S   S2        1.0  0.0  0.5  0.5  1.0000
  S   S3        1.0  0.5  0.0  0.0  1.0000
  S   S4        1.0  0.5  0.0  0.5  1.0000
  O   O1        1.0  0.4  0.13  0.08  1.0000
  O   O2        1.0  0.6  0.87  0.08  1.0000
  O   O3        1.0  0.6  0.13  0.58  1.0000
  O   O4        1.0  0.4  0.87  0.58  1.0000
  O   O5        1.0  0.87  0.4  0.92  1.0000
  O   O6        1.0  0.13  0.6  0.92  1.0000
  O   O7        1.0  0.87  0.6  0.42  1.0000
  O   O8        1.0  0.13  0.4  0.42  1.0000
  O   O9        1.0  0.9  0.63  0.58  1.0000
  O   O10       1.0  0.09999999999999998  0.36999999999999994  0.58  1.0000
  O   O11       1.0  0.09999999999999998  0.63  0.08  1.0000
  O   O12       1.0  0.9  0.36999999999999994  0.08  1.0000
  O   O13       1.0  0.36999999999999994  0.9  0.42  1.0000
  O   O14       1.0  0.63  0.09999999999999998  0.42  1.0000
  O   O15       1.0  0.36999999999999994  0.09999999999999998  0.92  1.0000
  O   O16       1.0  0.63  0.9  0.92  1.0000
  O   O17       1.0  0.1  0.14  0.16  1.0000
  O   O18       1.0  0.9  0.86  0.16  1.0000
  O   O19       1.0  0.9  0.14  0.66  1.0000
  O   O20       1.0  0.1  0.86  0.66  1.0000
  O   O21       1.0  0.86  0.1  0.84  1.0000
  O   O22       1.0  0.14  0.9  0.84  1.0000
  O   O23       1.0  0.86  0.9  0.33999999999999997  1.0000
  O   O24       1.0  0.14  0.1  0.33999999999999997  1.0000
  O   O25       1.0  0.6  0.64  0.66  1.0000
  O   O26       1.0  0.4  0.36  0.66  1.0000
  O   O27       1.0  0.4  0.64  0.16  1.0000
  O   O28       1.0  0.6  0.36  0.16  1.0000
  O   O29       1.0  0.36  0.6  0.33999999999999997  1.0000
  O   O30       1.0  0.64  0.4  0.33999999999999997  1.0000
  O   O31       1.0  0.36  0.4  0.84  1.0000
  O   O32       1.0  0.64  0.6  0.84  1.0000
