data_image0
_chemical_formula_structural       Ba12Ga4S16Cl4
_chemical_formula_sum              "Ba12 Ga4 S16 Cl4"
_cell_length_a       12.264
_cell_length_b       9.5567
_cell_length_c       8.4274
_cell_angle_alpha    90.0
_cell_angle_beta     90.0
_cell_angle_gamma    90.0

_space_group_name_H-M_alt    "P 1"
_space_group_IT_number       1

loop_
  _space_group_symop_operation_xyz
  'x, y, z'

loop_
  _atom_site_type_symbol
  _atom_site_label
  _atom_site_symmetry_multiplicity
  _atom_site_fract_x
  _atom_site_fract_y
  _atom_site_fract_z
  _atom_site_occupancy
  Ba  Ba1       1.0  0.48087  0.25  0.58697  1.0000
  Ba  Ba2       1.0  0.01912999999999998  0.75  0.08696999999999999  1.0000
  Ba  Ba3       1.0  0.51913  0.75  0.41303  1.0000
  Ba  Ba4       1.0  0.98087  0.25  0.9130300000000001  1.0000
  Ba  Ba5       1.0  0.667833  0.980267  0.91539  1.0000
  Ba  Ba6       1.0  0.8321670000000001  0.019733  0.4153899999999999  1.0000
  Ba  Ba7       1.0  0.332167  0.480267  0.08460999999999996  1.0000
  Ba  Ba8       1.0  0.1678329999999999  0.519733  0.58461  1.0000
  Ba  Ba9       1.0  0.332167  0.019733  0.08460999999999996  1.0000
  Ba  Ba10      1.0  0.1678329999999999  0.980267  0.58461  1.0000
  Ba  Ba11      1.0  0.667833  0.519733  0.91539  1.0000
  Ba  Ba12      1.0  0.8321670000000001  0.480267  0.4153899999999999  1.0000
  Ga  Ga1       1.0  0.60608  0.25  0.18939000000000006  1.0000
  Ga  Ga2       1.0  0.8939200000000002  0.75  0.6893900000000002  1.0000
  Ga  Ga3       1.0  0.3939200000000001  0.75  0.8106099999999999  1.0000
  Ga  Ga4       1.0  0.10607999999999997  0.25  0.31061  1.0000
  S   S1        1.0  0.42719  0.9518  0.6863500000000001  1.0000
  S   S2        1.0  0.07280999999999999  0.0482  0.18635000000000004  1.0000
  S   S3        1.0  0.57281  0.4518  0.31364999999999993  1.0000
  S   S4        1.0  0.92719  0.5482  0.8136499999999999  1.0000
  S   S5        1.0  0.57281  0.0482  0.31364999999999993  1.0000
  S   S6        1.0  0.92719  0.9518  0.8136499999999999  1.0000
  S   S7        1.0  0.42719  0.5482  0.6863500000000001  1.0000
  S   S8        1.0  0.07280999999999999  0.4518  0.18635000000000004  1.0000
  S   S9        1.0  0.28742  0.25  0.3635200000000001  1.0000
  S   S10       1.0  0.21258  0.75  0.8635200000000001  1.0000
  S   S11       1.0  0.7125800000000001  0.75  0.6364799999999999  1.0000
  S   S12       1.0  0.78742  0.25  0.13647999999999993  1.0000
  S   S13       1.0  0.50646  0.25  0.9630099999999999  1.0000
  S   S14       1.0  0.9935400000000001  0.75  0.4630099999999999  1.0000
  S   S15       1.0  0.49354000000000003  0.75  0.036990000000000085  1.0000
  S   S16       1.0  0.006460000000000132  0.25  0.5369900000000001  1.0000
  Cl  Cl1       1.0  0.73036  0.25  0.66739  1.0000
  Cl  Cl2       1.0  0.7696400000000001  0.75  0.16739000000000018  1.0000
  Cl  Cl3       1.0  0.26964  0.75  0.33260999999999996  1.0000
  Cl  Cl4       1.0  0.23036000000000015  0.25  0.83261  1.0000
