data_image0
_chemical_formula_structural       Sm24Ge40
_chemical_formula_sum              "Sm24 Ge40"
_cell_length_a       5.8281
_cell_length_b       17.476
_cell_length_c       13.8749
_cell_angle_alpha    90.0
_cell_angle_beta     90.0
_cell_angle_gamma    90.0

_space_group_name_H-M_alt    "P 1"
_space_group_IT_number       1

loop_
  _space_group_symop_operation_xyz
  'x, y, z'

loop_
  _atom_site_type_symbol
  _atom_site_label
  _atom_site_symmetry_multiplicity
  _atom_site_fract_x
  _atom_site_fract_y
  _atom_site_fract_z
  _atom_site_occupancy
  Sm  Sm1       1.0  0.0  0.0  0.9999899999999999  1.0000
  Sm  Sm2       1.0  0.25  0.25  0.24999  1.0000
  Sm  Sm3       1.0  0.0  0.5  0.49998999999999993  1.0000
  Sm  Sm4       1.0  0.25  0.75  0.74999  1.0000
  Sm  Sm5       1.0  0.5  0.0  0.49998999999999993  1.0000
  Sm  Sm6       1.0  0.7500000000000001  0.25  0.74999  1.0000
  Sm  Sm7       1.0  0.5  0.5  0.9999899999999999  1.0000
  Sm  Sm8       1.0  0.7500000000000001  0.75  0.24999  1.0000
  Sm  Sm9       1.0  0.7573300000000002  0.08169  0.25633  1.0000
  Sm  Sm10      1.0  0.24266999999999997  0.9183100000000001  0.25633  1.0000
  Sm  Sm11      1.0  0.007330000000000059  0.16831000000000002  0.50633  1.0000
  Sm  Sm12      1.0  0.49266999999999994  0.33169  0.50633  1.0000
  Sm  Sm13      1.0  0.7573300000000002  0.58169  0.75633  1.0000
  Sm  Sm14      1.0  0.24266999999999997  0.41831000000000007  0.75633  1.0000
  Sm  Sm15      1.0  0.007330000000000059  0.66831  0.006329999999999947  1.0000
  Sm  Sm16      1.0  0.49266999999999994  0.83169  0.006329999999999947  1.0000
  Sm  Sm17      1.0  0.25733000000000006  0.08169  0.75633  1.0000
  Sm  Sm18      1.0  0.74267  0.9183100000000001  0.75633  1.0000
  Sm  Sm19      1.0  0.5073300000000002  0.16831000000000002  0.006329999999999947  1.0000
  Sm  Sm20      1.0  0.9926699999999999  0.33169  0.006329999999999947  1.0000
  Sm  Sm21      1.0  0.25733000000000006  0.58169  0.25633  1.0000
  Sm  Sm22      1.0  0.74267  0.41831000000000007  0.25633  1.0000
  Sm  Sm23      1.0  0.5073300000000002  0.66831  0.50633  1.0000
  Sm  Sm24      1.0  0.9926699999999999  0.83169  0.50633  1.0000
  Ge  Ge1       1.0  0.0  0.0  0.44614  1.0000
  Ge  Ge2       1.0  0.25  0.25  0.6961399999999999  1.0000
  Ge  Ge3       1.0  0.0  0.5  0.94614  1.0000
  Ge  Ge4       1.0  0.25  0.75  0.19613999999999995  1.0000
  Ge  Ge5       1.0  0.5  0.0  0.94614  1.0000
  Ge  Ge6       1.0  0.7500000000000001  0.25  0.19613999999999995  1.0000
  Ge  Ge7       1.0  0.5  0.5  0.44614  1.0000
  Ge  Ge8       1.0  0.7500000000000001  0.75  0.6961399999999999  1.0000
  Ge  Ge9       1.0  0.7949800000000002  0.06964  0.65746  1.0000
  Ge  Ge10      1.0  0.2050199999999999  0.9303599999999999  0.65746  1.0000
  Ge  Ge11      1.0  0.04498000000000025  0.18036000000000002  0.9074599999999999  1.0000
  Ge  Ge12      1.0  0.45501999999999987  0.31964  0.9074599999999999  1.0000
  Ge  Ge13      1.0  0.7949800000000002  0.56964  0.15745999999999993  1.0000
  Ge  Ge14      1.0  0.2050199999999999  0.43036  0.15745999999999993  1.0000
  Ge  Ge15      1.0  0.04498000000000025  0.68036  0.40745999999999993  1.0000
  Ge  Ge16      1.0  0.45501999999999987  0.81964  0.40745999999999993  1.0000
  Ge  Ge17      1.0  0.29498000000000024  0.06964  0.15745999999999993  1.0000
  Ge  Ge18      1.0  0.70502  0.9303599999999999  0.15745999999999993  1.0000
  Ge  Ge19      1.0  0.5449800000000002  0.18036000000000002  0.40745999999999993  1.0000
  Ge  Ge20      1.0  0.9550199999999999  0.31964  0.40745999999999993  1.0000
  Ge  Ge21      1.0  0.29498000000000024  0.56964  0.65746  1.0000
  Ge  Ge22      1.0  0.70502  0.43036  0.65746  1.0000
  Ge  Ge23      1.0  0.5449800000000002  0.68036  0.9074599999999999  1.0000
  Ge  Ge24      1.0  0.9550199999999999  0.81964  0.9074599999999999  1.0000
  Ge  Ge25      1.0  0.74069  0.08705  0.8368199999999999  1.0000
  Ge  Ge26      1.0  0.25931000000000004  0.91295  0.8368199999999999  1.0000
  Ge  Ge27      1.0  0.9906900000000001  0.16294999999999998  0.0868199999999999  1.0000
  Ge  Ge28      1.0  0.5093100000000002  0.33705  0.0868199999999999  1.0000
  Ge  Ge29      1.0  0.74069  0.58705  0.33681999999999984  1.0000
  Ge  Ge30      1.0  0.25931000000000004  0.41295  0.33681999999999984  1.0000
  Ge  Ge31      1.0  0.9906900000000001  0.66295  0.5868199999999999  1.0000
  Ge  Ge32      1.0  0.5093100000000002  0.83705  0.5868199999999999  1.0000
  Ge  Ge33      1.0  0.24068999999999988  0.08705  0.33681999999999984  1.0000
  Ge  Ge34      1.0  0.7593100000000002  0.91295  0.33681999999999984  1.0000
  Ge  Ge35      1.0  0.4906899999999999  0.16294999999999998  0.5868199999999999  1.0000
  Ge  Ge36      1.0  0.00931000000000004  0.33705  0.5868199999999999  1.0000
  Ge  Ge37      1.0  0.24068999999999988  0.58705  0.8368199999999999  1.0000
  Ge  Ge38      1.0  0.7593100000000002  0.41295  0.8368199999999999  1.0000
  Ge  Ge39      1.0  0.4906899999999999  0.66295  0.0868199999999999  1.0000
  Ge  Ge40      1.0  0.00931000000000004  0.83705  0.0868199999999999  1.0000
