data_image0
_chemical_formula_structural       Sn4Fe4O24
_chemical_formula_sum              "Sn4 Fe4 O24"
_cell_length_a       7.629
_cell_length_b       7.629
_cell_length_c       7.629
_cell_angle_alpha    90.0
_cell_angle_beta     90.0
_cell_angle_gamma    90.0

_space_group_name_H-M_alt    "P 1"
_space_group_IT_number       1

loop_
  _space_group_symop_operation_xyz
  'x, y, z'

loop_
  _atom_site_type_symbol
  _atom_site_label
  _atom_site_symmetry_multiplicity
  _atom_site_fract_x
  _atom_site_fract_y
  _atom_site_fract_z
  _atom_site_occupancy
  Sn  Sn1       1.0  0.5  0.5  0.5  1.0000
  Sn  Sn2       1.0  0.5  0.0  0.0  1.0000
  Sn  Sn3       1.0  0.0  0.5  0.0  1.0000
  Sn  Sn4       1.0  0.0  0.0  0.5  1.0000
  Fe  Fe1       1.0  0.0  0.0  0.0  1.0000
  Fe  Fe2       1.0  0.0  0.5  0.5  1.0000
  Fe  Fe3       1.0  0.5  0.0  0.5  1.0000
  Fe  Fe4       1.0  0.5  0.5  0.0  1.0000
  O   O1        1.0  0.068  0.068  0.251  1.0000
  O   O2        1.0  0.068  0.432  0.24899999999999997  1.0000
  O   O3        1.0  0.432  0.068  0.24899999999999997  1.0000
  O   O4        1.0  0.432  0.432  0.251  1.0000
  O   O5        1.0  0.068  0.251  0.068  1.0000
  O   O6        1.0  0.432  0.24899999999999997  0.068  1.0000
  O   O7        1.0  0.068  0.24899999999999997  0.432  1.0000
  O   O8        1.0  0.432  0.251  0.432  1.0000
  O   O9        1.0  0.251  0.068  0.068  1.0000
  O   O10       1.0  0.24899999999999997  0.068  0.432  1.0000
  O   O11       1.0  0.24899999999999997  0.432  0.068  1.0000
  O   O12       1.0  0.251  0.432  0.432  1.0000
  O   O13       1.0  0.9319999999999999  0.9319999999999999  0.749  1.0000
  O   O14       1.0  0.9319999999999999  0.5680000000000001  0.751  1.0000
  O   O15       1.0  0.5680000000000001  0.9319999999999999  0.751  1.0000
  O   O16       1.0  0.5680000000000001  0.5680000000000001  0.749  1.0000
  O   O17       1.0  0.9319999999999999  0.749  0.9319999999999999  1.0000
  O   O18       1.0  0.5680000000000001  0.751  0.9319999999999999  1.0000
  O   O19       1.0  0.9319999999999999  0.751  0.5680000000000001  1.0000
  O   O20       1.0  0.5680000000000001  0.749  0.5680000000000001  1.0000
  O   O21       1.0  0.749  0.9319999999999999  0.9319999999999999  1.0000
  O   O22       1.0  0.751  0.9319999999999999  0.5680000000000001  1.0000
  O   O23       1.0  0.751  0.5680000000000001  0.9319999999999999  1.0000
  O   O24       1.0  0.749  0.5680000000000001  0.5680000000000001  1.0000
