data_image0
_chemical_formula_structural       Mg4S4O16
_chemical_formula_sum              "Mg4 S4 O16"
_cell_length_a       8.5787
_cell_length_b       6.6953
_cell_length_c       4.7438
_cell_angle_alpha    90.0
_cell_angle_beta     90.0
_cell_angle_gamma    90.0

_space_group_name_H-M_alt    "P 1"
_space_group_IT_number       1

loop_
  _space_group_symop_operation_xyz
  'x, y, z'

loop_
  _atom_site_type_symbol
  _atom_site_label
  _atom_site_symmetry_multiplicity
  _atom_site_fract_x
  _atom_site_fract_y
  _atom_site_fract_z
  _atom_site_occupancy
  Mg  Mg1       1.0  0.0  0.0  0.0  1.0000
  Mg  Mg2       1.0  0.5  0.0  0.5  1.0000
  Mg  Mg3       1.0  0.0  0.5  0.0  1.0000
  Mg  Mg4       1.0  0.5  0.5  0.5  1.0000
  S   S1        1.0  0.32046  0.25  0.02598  1.0000
  S   S2        1.0  0.17953999999999998  0.75  0.52598  1.0000
  S   S3        1.0  0.67954  0.75  0.9740200000000001  1.0000
  S   S4        1.0  0.82046  0.25  0.47402  1.0000
  O   O1        1.0  0.37429  0.06895  0.16526  1.0000
  O   O2        1.0  0.12571  0.93105  0.66526  1.0000
  O   O3        1.0  0.62571  0.56895  0.83474  1.0000
  O   O4        1.0  0.87429  0.43105  0.33474000000000004  1.0000
  O   O5        1.0  0.62571  0.93105  0.83474  1.0000
  O   O6        1.0  0.87429  0.06895  0.33474000000000004  1.0000
  O   O7        1.0  0.37429  0.43105  0.16526  1.0000
  O   O8        1.0  0.12571  0.56895  0.66526  1.0000
  O   O9        1.0  0.1465  0.25  0.03881  1.0000
  O   O10       1.0  0.35350000000000004  0.75  0.53881  1.0000
  O   O11       1.0  0.8535000000000001  0.75  0.9611900000000001  1.0000
  O   O12       1.0  0.6465  0.25  0.46119  1.0000
  O   O13       1.0  0.37517  0.25  0.73002  1.0000
  O   O14       1.0  0.12483  0.75  0.23002000000000014  1.0000
  O   O15       1.0  0.62483  0.75  0.26998  1.0000
  O   O16       1.0  0.87517  0.25  0.76998  1.0000
