data_image0
_chemical_formula_structural       I8Sb8F80
_chemical_formula_sum              "I8 Sb8 F80"
_cell_length_a       8.2702
_cell_length_b       8.3115
_cell_length_c       20.607
_cell_angle_alpha    90.0
_cell_angle_beta     90.0
_cell_angle_gamma    90.0

_space_group_name_H-M_alt    "P 1"
_space_group_IT_number       1

loop_
  _space_group_symop_operation_xyz
  'x, y, z'

loop_
  _atom_site_type_symbol
  _atom_site_label
  _atom_site_symmetry_multiplicity
  _atom_site_fract_x
  _atom_site_fract_y
  _atom_site_fract_z
  _atom_site_occupancy
  I   I1        1.0  0.5  0.25  0.150477  1.0000
  I   I2        1.0  0.0  0.7499999999999999  0.650477  1.0000
  I   I3        1.0  0.5  0.7499999999999999  0.34952300000000003  1.0000
  I   I4        1.0  0.0  0.25  0.8495229999999999  1.0000
  I   I5        1.0  0.5  0.7499999999999999  0.8495229999999999  1.0000
  I   I6        1.0  0.0  0.25  0.34952300000000003  1.0000
  I   I7        1.0  0.5  0.25  0.650477  1.0000
  I   I8        1.0  0.0  0.7499999999999999  0.150477  1.0000
  Sb  Sb1       1.0  0.0  0.25  0.08569  1.0000
  Sb  Sb2       1.0  0.5  0.7499999999999999  0.58569  1.0000
  Sb  Sb3       1.0  0.0  0.7499999999999999  0.41431000000000007  1.0000
  Sb  Sb4       1.0  0.5  0.25  0.9143099999999998  1.0000
  Sb  Sb5       1.0  0.0  0.7499999999999999  0.9143099999999998  1.0000
  Sb  Sb6       1.0  0.5  0.25  0.41431000000000007  1.0000
  Sb  Sb7       1.0  0.0  0.25  0.58569  1.0000
  Sb  Sb8       1.0  0.5  0.7499999999999999  0.08569  1.0000
  F   F1        1.0  0.3786  0.1313  0.20476000000000003  1.0000
  F   F2        1.0  0.12140000000000001  0.8687  0.70476  1.0000
  F   F3        1.0  0.6214  0.6313  0.29523999999999995  1.0000
  F   F4        1.0  0.8786  0.3687  0.79524  1.0000
  F   F5        1.0  0.8786  0.6313  0.70476  1.0000
  F   F6        1.0  0.6214  0.3687  0.20476000000000003  1.0000
  F   F7        1.0  0.12140000000000001  0.1313  0.79524  1.0000
  F   F8        1.0  0.3786  0.8687  0.29523999999999995  1.0000
  F   F9        1.0  0.6214  0.8687  0.79524  1.0000
  F   F10       1.0  0.8786  0.1313  0.29523999999999995  1.0000
  F   F11       1.0  0.3786  0.3687  0.70476  1.0000
  F   F12       1.0  0.12140000000000001  0.6313  0.20476000000000003  1.0000
  F   F13       1.0  0.12140000000000001  0.3687  0.29523999999999995  1.0000
  F   F14       1.0  0.3786  0.6313  0.79524  1.0000
  F   F15       1.0  0.8786  0.8687  0.20476000000000003  1.0000
  F   F16       1.0  0.6214  0.1313  0.70476  1.0000
  F   F17       1.0  0.349  0.4031  0.17427  1.0000
  F   F18       1.0  0.15100000000000002  0.5969  0.67427  1.0000
  F   F19       1.0  0.6510000000000001  0.9031  0.32572999999999996  1.0000
  F   F20       1.0  0.849  0.09689999999999999  0.82573  1.0000
  F   F21       1.0  0.849  0.9031  0.67427  1.0000
  F   F22       1.0  0.6510000000000001  0.09689999999999999  0.17427  1.0000
  F   F23       1.0  0.15100000000000002  0.4031  0.82573  1.0000
  F   F24       1.0  0.349  0.5969  0.32572999999999996  1.0000
  F   F25       1.0  0.6510000000000001  0.5969  0.82573  1.0000
  F   F26       1.0  0.849  0.4031  0.32572999999999996  1.0000
  F   F27       1.0  0.349  0.09689999999999999  0.67427  1.0000
  F   F28       1.0  0.15100000000000002  0.9031  0.17427  1.0000
  F   F29       1.0  0.15100000000000002  0.09689999999999999  0.32572999999999996  1.0000
  F   F30       1.0  0.349  0.9031  0.82573  1.0000
  F   F31       1.0  0.849  0.5969  0.17427  1.0000
  F   F32       1.0  0.6510000000000001  0.4031  0.67427  1.0000
  F   F33       1.0  0.0  0.25  0.9958  1.0000
  F   F34       1.0  0.5  0.7499999999999999  0.4958000000000001  1.0000
  F   F35       1.0  0.0  0.7499999999999999  0.5042  1.0000
  F   F36       1.0  0.5  0.25  0.0042  1.0000
  F   F37       1.0  0.0  0.7499999999999999  0.0042  1.0000
  F   F38       1.0  0.5  0.25  0.5042  1.0000
  F   F39       1.0  0.0  0.25  0.4958000000000001  1.0000
  F   F40       1.0  0.5  0.7499999999999999  0.9958  1.0000
  F   F41       1.0  0.0  0.25  0.17521  1.0000
  F   F42       1.0  0.5  0.7499999999999999  0.67521  1.0000
  F   F43       1.0  0.0  0.7499999999999999  0.32479  1.0000
  F   F44       1.0  0.5  0.25  0.8247900000000001  1.0000
  F   F45       1.0  0.0  0.7499999999999999  0.8247900000000001  1.0000
  F   F46       1.0  0.5  0.25  0.32479  1.0000
  F   F47       1.0  0.0  0.25  0.67521  1.0000
  F   F48       1.0  0.5  0.7499999999999999  0.17521  1.0000
  F   F49       1.0  0.22380000000000005  0.2069  0.0857  1.0000
  F   F50       1.0  0.2762  0.7931  0.5857  1.0000
  F   F51       1.0  0.7762  0.7069  0.4143  1.0000
  F   F52       1.0  0.7238  0.2931  0.9143  1.0000
  F   F53       1.0  0.7238  0.7069  0.5857  1.0000
  F   F54       1.0  0.7762  0.2931  0.0857  1.0000
  F   F55       1.0  0.2762  0.2069  0.9143  1.0000
  F   F56       1.0  0.22380000000000005  0.7931  0.4143  1.0000
  F   F57       1.0  0.7762  0.7931  0.9143  1.0000
  F   F58       1.0  0.7238  0.2069  0.4143  1.0000
  F   F59       1.0  0.22380000000000005  0.2931  0.5857  1.0000
  F   F60       1.0  0.2762  0.7069  0.0857  1.0000
  F   F61       1.0  0.2762  0.2931  0.4143  1.0000
  F   F62       1.0  0.22380000000000005  0.7069  0.9143  1.0000
  F   F63       1.0  0.7238  0.7931  0.0857  1.0000
  F   F64       1.0  0.7762  0.2069  0.5857  1.0000
  F   F65       1.0  0.0439  0.4725  0.08532  1.0000
  F   F66       1.0  0.45610000000000006  0.5275000000000001  0.58532  1.0000
  F   F67       1.0  0.9561  0.9725  0.41468  1.0000
  F   F68       1.0  0.5439  0.027500000000000024  0.91468  1.0000
  F   F69       1.0  0.5439  0.9725  0.58532  1.0000
  F   F70       1.0  0.9561  0.027500000000000024  0.08532  1.0000
  F   F71       1.0  0.45610000000000006  0.4725  0.91468  1.0000
  F   F72       1.0  0.0439  0.5275000000000001  0.41468  1.0000
  F   F73       1.0  0.9561  0.5275000000000001  0.91468  1.0000
  F   F74       1.0  0.5439  0.4725  0.41468  1.0000
  F   F75       1.0  0.0439  0.027500000000000024  0.58532  1.0000
  F   F76       1.0  0.45610000000000006  0.9725  0.08532  1.0000
  F   F77       1.0  0.45610000000000006  0.027500000000000024  0.41468  1.0000
  F   F78       1.0  0.0439  0.9725  0.91468  1.0000
  F   F79       1.0  0.5439  0.5275000000000001  0.08532  1.0000
  F   F80       1.0  0.9561  0.4725  0.58532  1.0000
