data_image0
_chemical_formula_structural       Cd12As4Cl12
_chemical_formula_sum              "Cd12 As4 Cl12"
_cell_length_a       13.144
_cell_length_b       8.102
_cell_length_c       7.082
_cell_angle_alpha    90.0
_cell_angle_beta     90.0
_cell_angle_gamma    90.0

_space_group_name_H-M_alt    "P 1"
_space_group_IT_number       1

loop_
  _space_group_symop_operation_xyz
  'x, y, z'

loop_
  _atom_site_type_symbol
  _atom_site_label
  _atom_site_symmetry_multiplicity
  _atom_site_fract_x
  _atom_site_fract_y
  _atom_site_fract_z
  _atom_site_occupancy
  Cd  Cd1       1.0  0.08780999999999999  0.25  0.4973400000000001  1.0000
  Cd  Cd2       1.0  0.5878099999999999  0.25  0.0026599999999999406  1.0000
  Cd  Cd3       1.0  0.9121900000000001  0.75  0.50266  1.0000
  Cd  Cd4       1.0  0.41219  0.75  0.9973400000000002  1.0000
  Cd  Cd5       1.0  0.0  0.0  0.0  1.0000
  Cd  Cd6       1.0  0.49999999999999994  0.5  0.5  1.0000
  Cd  Cd7       1.0  0.0  0.5  0.0  1.0000
  Cd  Cd8       1.0  0.49999999999999994  0.0  0.5  1.0000
  Cd  Cd9       1.0  0.25854  0.25  0.001  1.0000
  Cd  Cd10      1.0  0.7585399999999999  0.25  0.49900000000000005  1.0000
  Cd  Cd11      1.0  0.7414599999999999  0.75  0.9990000000000001  1.0000
  Cd  Cd12      1.0  0.24145999999999998  0.75  0.501  1.0000
  As  As1       1.0  0.08217999999999998  0.25  0.14361000000000002  1.0000
  As  As2       1.0  0.5821799999999999  0.25  0.35639000000000004  1.0000
  As  As3       1.0  0.91782  0.75  0.85639  1.0000
  As  As4       1.0  0.41781999999999997  0.75  0.64361  1.0000
  Cl  Cl1       1.0  0.4178999999999999  0.25  0.8074  1.0000
  Cl  Cl2       1.0  0.9178999999999998  0.25  0.6926  1.0000
  Cl  Cl3       1.0  0.5821000000000001  0.75  0.1926  1.0000
  Cl  Cl4       1.0  0.08210000000000006  0.75  0.3074  1.0000
  Cl  Cl5       1.0  0.16899999999999998  0.4784000000000001  0.6946000000000001  1.0000
  Cl  Cl6       1.0  0.6689999999999999  0.021599999999999953  0.8054000000000001  1.0000
  Cl  Cl7       1.0  0.8309999999999998  0.9784  0.3054  1.0000
  Cl  Cl8       1.0  0.33099999999999996  0.5216000000000001  0.19460000000000002  1.0000
  Cl  Cl9       1.0  0.8309999999999998  0.5216000000000001  0.3054  1.0000
  Cl  Cl10      1.0  0.33099999999999996  0.9784  0.19460000000000002  1.0000
  Cl  Cl11      1.0  0.16899999999999998  0.021599999999999953  0.6946000000000001  1.0000
  Cl  Cl12      1.0  0.6689999999999999  0.4784000000000001  0.8054000000000001  1.0000
