data_image0
_chemical_formula_structural       Li4Mn2Si2O8
_chemical_formula_sum              "Li4 Mn2 Si2 O8"
_cell_length_a       6.3133
_cell_length_b       5.3677
_cell_length_c       4.9685
_cell_angle_alpha    90.0
_cell_angle_beta     90.0
_cell_angle_gamma    90.0

_space_group_name_H-M_alt    "P 1"
_space_group_IT_number       1

loop_
  _space_group_symop_operation_xyz
  'x, y, z'

loop_
  _atom_site_type_symbol
  _atom_site_label
  _atom_site_symmetry_multiplicity
  _atom_site_fract_x
  _atom_site_fract_y
  _atom_site_fract_z
  _atom_site_occupancy
  Li  Li1       1.0  0.7502999999999997  0.8312  0.9949999999999998  1.0000
  Li  Li2       1.0  0.7497000000000001  0.1688  0.4949999999999999  1.0000
  Li  Li3       1.0  0.24970000000000014  0.8312  0.9949999999999998  1.0000
  Li  Li4       1.0  0.2502999999999997  0.1688  0.4949999999999999  1.0000
  Mn  Mn1       1.0  0.4999999999999999  0.33172  0.9968  1.0000
  Mn  Mn2       1.0  5.551115123125782e-17  0.66828  0.49679999999999985  1.0000
  Si  Si1       1.0  0.9999999999999998  0.3209  0.9850999999999998  1.0000
  Si  Si2       1.0  0.5000000000000001  0.6791  0.48509999999999986  1.0000
  O   O1        1.0  0.4999999999999999  0.6868  0.1569  1.0000
  O   O2        1.0  5.551115123125782e-17  0.31320000000000003  0.6569  1.0000
  O   O3        1.0  0.4999999999999999  0.3867  0.5804  1.0000
  O   O4        1.0  5.551115123125782e-17  0.6133  0.08040000000000001  1.0000
  O   O5        1.0  0.7886999999999998  0.1799  0.09789999999999988  1.0000
  O   O6        1.0  0.7113  0.8201000000000002  0.5978999999999998  1.0000
  O   O7        1.0  0.21130000000000013  0.1799  0.09789999999999988  1.0000
  O   O8        1.0  0.2886999999999999  0.8201000000000002  0.5978999999999998  1.0000
