data_image0
_chemical_formula_structural       Ba6Co2Nb8O30
_chemical_formula_sum              "Ba6 Co2 Nb8 O30"
_cell_length_a       12.589
_cell_length_b       12.589
_cell_length_c       4.009
_cell_angle_alpha    90.0
_cell_angle_beta     90.0
_cell_angle_gamma    90.0

_space_group_name_H-M_alt    "P 1"
_space_group_IT_number       1

loop_
  _space_group_symop_operation_xyz
  'x, y, z'

loop_
  _atom_site_type_symbol
  _atom_site_label
  _atom_site_symmetry_multiplicity
  _atom_site_fract_x
  _atom_site_fract_y
  _atom_site_fract_z
  _atom_site_occupancy
  Ba  Ba1       1.0  0.0  0.0  0.0  1.0000
  Ba  Ba2       1.0  0.5  0.5  0.0  1.0000
  Ba  Ba3       1.0  0.17190000000000003  0.6719  0.0005  1.0000
  Ba  Ba4       1.0  0.8281  0.3281  0.0005  1.0000
  Ba  Ba5       1.0  0.3281  0.17190000000000003  0.0005  1.0000
  Ba  Ba6       1.0  0.6719  0.8281  0.0005  1.0000
  Co  Co1       1.0  0.0  0.5  0.5438  1.0000
  Co  Co2       1.0  0.5  0.0  0.5438  1.0000
  Nb  Nb1       1.0  0.0749  0.21420000000000003  0.4981  1.0000
  Nb  Nb2       1.0  0.9251000000000001  0.7857999999999999  0.4981  1.0000
  Nb  Nb3       1.0  0.7857999999999999  0.0749  0.4981  1.0000
  Nb  Nb4       1.0  0.21420000000000003  0.9251000000000001  0.4981  1.0000
  Nb  Nb5       1.0  0.5749  0.28579999999999994  0.4981  1.0000
  Nb  Nb6       1.0  0.42510000000000003  0.7142000000000001  0.4981  1.0000
  Nb  Nb7       1.0  0.28579999999999994  0.42510000000000003  0.4981  1.0000
  Nb  Nb8       1.0  0.7142000000000001  0.5749  0.4981  1.0000
  O   O1        1.0  0.0  0.5  0.027  1.0000
  O   O2        1.0  0.5  0.0  0.027  1.0000
  O   O3        1.0  0.07600000000000001  0.20900000000000002  0.026000000000000006  1.0000
  O   O4        1.0  0.9239999999999999  0.791  0.026000000000000006  1.0000
  O   O5        1.0  0.791  0.07600000000000001  0.026000000000000006  1.0000
  O   O6        1.0  0.20900000000000002  0.9239999999999999  0.026000000000000006  1.0000
  O   O7        1.0  0.5760000000000001  0.29100000000000004  0.026000000000000006  1.0000
  O   O8        1.0  0.424  0.7090000000000002  0.026000000000000006  1.0000
  O   O9        1.0  0.29100000000000004  0.424  0.026000000000000006  1.0000
  O   O10       1.0  0.7090000000000002  0.5760000000000001  0.026000000000000006  1.0000
  O   O11       1.0  0.34500000000000003  0.008000000000000002  0.46600000000000014  1.0000
  O   O12       1.0  0.6550000000000001  0.9920000000000001  0.46600000000000014  1.0000
  O   O13       1.0  0.9920000000000001  0.34500000000000003  0.46600000000000014  1.0000
  O   O14       1.0  0.008000000000000002  0.6550000000000001  0.46600000000000014  1.0000
  O   O15       1.0  0.8450000000000001  0.49200000000000005  0.46600000000000014  1.0000
  O   O16       1.0  0.155  0.508  0.46600000000000014  1.0000
  O   O17       1.0  0.49200000000000005  0.155  0.46600000000000014  1.0000
  O   O18       1.0  0.508  0.8450000000000001  0.46600000000000014  1.0000
  O   O19       1.0  0.282  0.7820000000000001  0.5  1.0000
  O   O20       1.0  0.7180000000000001  0.21799999999999986  0.5  1.0000
  O   O21       1.0  0.21799999999999986  0.282  0.5  1.0000
  O   O22       1.0  0.7820000000000001  0.7180000000000001  0.5  1.0000
  O   O23       1.0  0.141  0.069  0.5  1.0000
  O   O24       1.0  0.859  0.931  0.5  1.0000
  O   O25       1.0  0.931  0.141  0.5  1.0000
  O   O26       1.0  0.069  0.859  0.5  1.0000
  O   O27       1.0  0.641  0.431  0.5  1.0000
  O   O28       1.0  0.35900000000000004  0.569  0.5  1.0000
  O   O29       1.0  0.431  0.35900000000000004  0.5  1.0000
  O   O30       1.0  0.569  0.641  0.5  1.0000
