data_image0
_chemical_formula_structural       Au8Eu2In4
_chemical_formula_sum              "Au8 Eu2 In4"
_cell_length_a       7.1612
_cell_length_b       7.1612
_cell_length_c       5.5268
_cell_angle_alpha    90.0
_cell_angle_beta     90.0
_cell_angle_gamma    90.0

_space_group_name_H-M_alt    "P 1"
_space_group_IT_number       1

loop_
  _space_group_symop_operation_xyz
  'x, y, z'

loop_
  _atom_site_type_symbol
  _atom_site_label
  _atom_site_symmetry_multiplicity
  _atom_site_fract_x
  _atom_site_fract_y
  _atom_site_fract_z
  _atom_site_occupancy
  Au  Au1       1.0  0.3058700000000001  0.3058700000000001  0.0  1.0000
  Au  Au2       1.0  0.6941299999999999  0.6941299999999999  0.0  1.0000
  Au  Au3       1.0  0.6941299999999999  0.3058700000000001  0.0  1.0000
  Au  Au4       1.0  0.3058700000000001  0.6941299999999999  0.0  1.0000
  Au  Au5       1.0  0.8058700000000001  0.8058700000000001  0.5  1.0000
  Au  Au6       1.0  0.19412999999999997  0.19412999999999997  0.5  1.0000
  Au  Au7       1.0  0.19412999999999997  0.8058700000000001  0.5  1.0000
  Au  Au8       1.0  0.8058700000000001  0.19412999999999997  0.5  1.0000
  Eu  Eu1       1.0  0.0  0.0  0.0  1.0000
  Eu  Eu2       1.0  0.5  0.5  0.5  1.0000
  In  In1       1.0  0.0  0.5  0.25  0.6250
  In  In2       1.0  0.5  0.0  0.25  0.6250
  In  In3       1.0  0.0  0.5  0.7499999999999999  0.6250
  In  In4       1.0  0.5  0.0  0.7499999999999999  0.6250
  Au  Au9       1.0  0.0  0.5  0.25  0.3750
  Au  Au10      1.0  0.5  0.0  0.25  0.3750
  Au  Au11      1.0  0.0  0.5  0.7499999999999999  0.3750
  Au  Au12      1.0  0.5  0.0  0.7499999999999999  0.3750
