data_image0
_chemical_formula_structural       Re24S44Li16
_chemical_formula_sum              "Re24 S44 Li16"
_cell_length_a       9.571
_cell_length_b       14.006
_cell_length_c       11.678
_cell_angle_alpha    90.0
_cell_angle_beta     90.0
_cell_angle_gamma    90.0

_space_group_name_H-M_alt    "P 1"
_space_group_IT_number       1

loop_
  _space_group_symop_operation_xyz
  'x, y, z'

loop_
  _atom_site_type_symbol
  _atom_site_label
  _atom_site_symmetry_multiplicity
  _atom_site_fract_x
  _atom_site_fract_y
  _atom_site_fract_z
  _atom_site_occupancy
  Re  Re1       1.0  0.10559999999999999  0.1078  0.9756  1.0000
  Re  Re2       1.0  0.39440000000000003  0.3922  0.9756  1.0000
  Re  Re3       1.0  0.6056  0.8922  0.5244  1.0000
  Re  Re4       1.0  0.8944  0.6078  0.5244  1.0000
  Re  Re5       1.0  0.8944  0.8922  0.024399999999999974  1.0000
  Re  Re6       1.0  0.6056  0.6078  0.024399999999999974  1.0000
  Re  Re7       1.0  0.39440000000000003  0.1078  0.47559999999999997  1.0000
  Re  Re8       1.0  0.10559999999999999  0.3922  0.47559999999999997  1.0000
  Re  Re9       1.0  0.147  0.9463000000000001  0.0824  1.0000
  Re  Re10      1.0  0.353  0.5536999999999999  0.0824  1.0000
  Re  Re11      1.0  0.647  0.053699999999999866  0.41759999999999997  1.0000
  Re  Re12      1.0  0.8529999999999999  0.4463000000000002  0.41759999999999997  1.0000
  Re  Re13      1.0  0.8529999999999999  0.053699999999999866  0.9175999999999999  1.0000
  Re  Re14      1.0  0.647  0.4463000000000002  0.9175999999999999  1.0000
  Re  Re15      1.0  0.353  0.9463000000000001  0.5824  1.0000
  Re  Re16      1.0  0.147  0.5536999999999999  0.5824  1.0000
  Re  Re17      1.0  0.9295999999999999  0.05160000000000001  0.1339  1.0000
  Re  Re18      1.0  0.5704000000000001  0.4484  0.1339  1.0000
  Re  Re19      1.0  0.4295999999999997  0.9484  0.3661  1.0000
  Re  Re20      1.0  0.07040000000000013  0.5516  0.3661  1.0000
  Re  Re21      1.0  0.07040000000000013  0.9484  0.8660999999999999  1.0000
  Re  Re22      1.0  0.4295999999999997  0.5516  0.8660999999999999  1.0000
  Re  Re23      1.0  0.5704000000000001  0.05160000000000001  0.6338999999999999  1.0000
  Re  Re24      1.0  0.9295999999999999  0.4484  0.6338999999999999  1.0000
  S   S1        1.0  0.166  0.0987  0.17469999999999997  1.0000
  S   S2        1.0  0.33399999999999996  0.40130000000000005  0.17469999999999997  1.0000
  S   S3        1.0  0.666  0.9013000000000001  0.3253  1.0000
  S   S4        1.0  0.8339999999999999  0.5987  0.3253  1.0000
  S   S5        1.0  0.8339999999999999  0.9013000000000001  0.8252999999999999  1.0000
  S   S6        1.0  0.666  0.5987  0.8252999999999999  1.0000
  S   S7        1.0  0.33399999999999996  0.0987  0.6747  1.0000
  S   S8        1.0  0.166  0.40130000000000005  0.6747  1.0000
  S   S9        1.0  0.024  0.1016  0.7789  1.0000
  S   S10       1.0  0.476  0.3984  0.7789  1.0000
  S   S11       1.0  0.524  0.8984  0.7210999999999999  1.0000
  S   S12       1.0  0.976  0.6016  0.7210999999999999  1.0000
  S   S13       1.0  0.976  0.8984  0.22109999999999994  1.0000
  S   S14       1.0  0.524  0.6016  0.22109999999999994  1.0000
  S   S15       1.0  0.476  0.1016  0.27890000000000015  1.0000
  S   S16       1.0  0.024  0.3984  0.27890000000000015  1.0000
  S   S17       1.0  0.8969999999999999  0.19780000000000006  0.024099999999999993  1.0000
  S   S18       1.0  0.6030000000000001  0.30219999999999997  0.024099999999999993  1.0000
  S   S19       1.0  0.3969999999999998  0.8022000000000001  0.47589999999999993  1.0000
  S   S20       1.0  0.10300000000000009  0.6978  0.47589999999999993  1.0000
  S   S21       1.0  0.10300000000000009  0.8022000000000001  0.9759  1.0000
  S   S22       1.0  0.3969999999999998  0.6978  0.9759  1.0000
  S   S23       1.0  0.6030000000000001  0.19780000000000006  0.5241  1.0000
  S   S24       1.0  0.8969999999999999  0.30219999999999997  0.5241  1.0000
  S   S25       1.0  0.298  0.9998  0.9307999999999998  1.0000
  S   S26       1.0  0.202  0.5002  0.9307999999999998  1.0000
  S   S27       1.0  0.798  0.00019999999999997797  0.5692000000000002  1.0000
  S   S28       1.0  0.702  0.4998000000000001  0.5692000000000002  1.0000
  S   S29       1.0  0.702  0.00019999999999997797  0.06920000000000014  1.0000
  S   S30       1.0  0.798  0.4998000000000001  0.06920000000000014  1.0000
  S   S31       1.0  0.202  0.9998  0.4307999999999998  1.0000
  S   S32       1.0  0.298  0.5002  0.4307999999999998  1.0000
  S   S33       1.0  0.844  0.1248  0.313  1.0000
  S   S34       1.0  0.656  0.3752  0.313  1.0000
  S   S35       1.0  0.34399999999999986  0.8752000000000001  0.18699999999999997  1.0000
  S   S36       1.0  0.15600000000000003  0.6248  0.18699999999999997  1.0000
  S   S37       1.0  0.15600000000000003  0.8752000000000001  0.687  1.0000
  S   S38       1.0  0.34399999999999986  0.6248  0.687  1.0000
  S   S39       1.0  0.656  0.1248  0.8129999999999998  1.0000
  S   S40       1.0  0.844  0.3752  0.8129999999999998  1.0000
  S   S41       1.0  0.25  0.25  0.9255  1.0000
  S   S42       1.0  0.75  0.75  0.5744999999999999  1.0000
  S   S43       1.0  0.75  0.75  0.07450000000000001  1.0000
  S   S44       1.0  0.25  0.25  0.4255  1.0000
  Li  Li1       1.0  0.5  0.75  0.62  1.0000
  Li  Li2       1.0  0.0  0.75  0.62  1.0000
  Li  Li3       1.0  0.0  0.25  0.8799999999999999  1.0000
  Li  Li4       1.0  0.5  0.25  0.8799999999999999  1.0000
  Li  Li5       1.0  0.5  0.25  0.37999999999999995  1.0000
  Li  Li6       1.0  0.0  0.25  0.37999999999999995  1.0000
  Li  Li7       1.0  0.0  0.75  0.12000000000000009  1.0000
  Li  Li8       1.0  0.5  0.75  0.12000000000000009  1.0000
  Li  Li9       1.0  0.82  0.16000000000000003  0.62  1.0000
  Li  Li10      1.0  0.68  0.34  0.62  1.0000
  Li  Li11      1.0  0.31999999999999984  0.84  0.8799999999999999  1.0000
  Li  Li12      1.0  0.18000000000000005  0.6600000000000001  0.8799999999999999  1.0000
  Li  Li13      1.0  0.18000000000000005  0.84  0.37999999999999995  1.0000
  Li  Li14      1.0  0.31999999999999984  0.6600000000000001  0.37999999999999995  1.0000
  Li  Li15      1.0  0.68  0.16000000000000003  0.12000000000000009  1.0000
  Li  Li16      1.0  0.82  0.34  0.12000000000000009  1.0000
