data_image0
_chemical_formula_structural       Cu2N12C16
_chemical_formula_sum              "Cu2 N12 C16"
_cell_length_a       7.212
_cell_length_b       5.452
_cell_length_c       10.696
_cell_angle_alpha    90.0
_cell_angle_beta     90.0
_cell_angle_gamma    90.0

_space_group_name_H-M_alt    "P 1"
_space_group_IT_number       1

loop_
  _space_group_symop_operation_xyz
  'x, y, z'

loop_
  _atom_site_type_symbol
  _atom_site_label
  _atom_site_symmetry_multiplicity
  _atom_site_fract_x
  _atom_site_fract_y
  _atom_site_fract_z
  _atom_site_occupancy
  Cu  Cu1       1.0  0.0  0.5  0.5  0.2500
  Cu  Cu2       1.0  0.5  0.5  0.0  0.2500
  N   N1        1.0  0.20060000000000006  0.292  0.5699  1.0000
  N   N2        1.0  0.20060000000000006  0.708  0.43010000000000004  1.0000
  N   N3        1.0  0.29940000000000005  0.292  0.9301  1.0000
  N   N4        1.0  0.29940000000000005  0.708  0.06990000000000006  1.0000
  N   N5        1.0  0.7994000000000001  0.708  0.43010000000000004  1.0000
  N   N6        1.0  0.7994000000000001  0.292  0.5699  1.0000
  N   N7        1.0  0.7006  0.708  0.06990000000000006  1.0000
  N   N8        1.0  0.7006  0.292  0.9301  1.0000
  N   N9        1.0  0.5  0.7400000000000001  0.8039999999999998  0.5000
  N   N10       1.0  0.5  0.26  0.19600000000000004  0.5000
  N   N11       1.0  0.0  0.7400000000000001  0.6960000000000001  0.5000
  N   N12       1.0  0.0  0.26  0.3039999999999998  0.5000
  C   C1        1.0  0.335  0.204  0.6089  1.0000
  C   C2        1.0  0.335  0.796  0.3911  1.0000
  C   C3        1.0  0.16499999999999998  0.204  0.8911  1.0000
  C   C4        1.0  0.16499999999999998  0.796  0.10889999999999998  1.0000
  C   C5        1.0  0.6650000000000001  0.796  0.3911  1.0000
  C   C6        1.0  0.6650000000000001  0.204  0.6089  1.0000
  C   C7        1.0  0.8350000000000001  0.796  0.10889999999999998  1.0000
  C   C8        1.0  0.8350000000000001  0.204  0.8911  1.0000
  C   C9        1.0  0.5  0.102  0.6496  0.5000
  C   C10       1.0  0.5  0.8980000000000001  0.3504  0.5000
  C   C11       1.0  0.0  0.102  0.8504  0.5000
  C   C12       1.0  0.0  0.8980000000000001  0.14959999999999996  0.5000
  C   C13       1.0  0.5  0.8980000000000001  0.734  0.5000
  C   C14       1.0  0.5  0.102  0.266  0.5000
  C   C15       1.0  0.0  0.8980000000000001  0.7659999999999999  0.5000
  C   C16       1.0  0.0  0.102  0.23399999999999996  0.5000
