data_image0
_chemical_formula_structural       Dy4W4O16
_chemical_formula_sum              "Dy4 W4 O16"
_cell_length_a       5.2545
_cell_length_b       5.2545
_cell_length_c       11.4029
_cell_angle_alpha    90.0
_cell_angle_beta     90.0
_cell_angle_gamma    90.0

_space_group_name_H-M_alt    "P 1"
_space_group_IT_number       1

loop_
  _space_group_symop_operation_xyz
  'x, y, z'

loop_
  _atom_site_type_symbol
  _atom_site_label
  _atom_site_symmetry_multiplicity
  _atom_site_fract_x
  _atom_site_fract_y
  _atom_site_fract_z
  _atom_site_occupancy
  Dy  Dy1       1.0  0.5  0.75  0.125  0.5000
  Dy  Dy2       1.0  0.0  0.75  0.375  0.5000
  Dy  Dy3       1.0  0.0  0.25  0.6250000000000001  0.5000
  Dy  Dy4       1.0  0.5  0.25  0.875  0.5000
  W   W1        1.0  0.0  0.25  0.125  1.0000
  W   W2        1.0  0.5  0.25  0.375  1.0000
  W   W3        1.0  0.5  0.75  0.6250000000000001  1.0000
  W   W4        1.0  0.0  0.75  0.875  1.0000
  O   O1        1.0  0.2419  0.0977  0.040400000000000005  1.0000
  O   O2        1.0  0.6523  0.4919  0.2904  1.0000
  O   O3        1.0  0.7581  0.4023  0.040400000000000005  1.0000
  O   O4        1.0  0.3477  0.008099999999999996  0.2904  1.0000
  O   O5        1.0  0.7419  0.5977  0.5404000000000001  1.0000
  O   O6        1.0  0.1523  0.9919  0.7904000000000001  1.0000
  O   O7        1.0  0.2581  0.9023000000000001  0.5404000000000001  1.0000
  O   O8        1.0  0.8477  0.5081  0.7904000000000001  1.0000
  O   O9        1.0  0.7581  0.9023000000000001  0.9596000000000001  1.0000
  O   O10       1.0  0.3477  0.5081  0.7096  1.0000
  O   O11       1.0  0.2419  0.5977  0.9596000000000001  1.0000
  O   O12       1.0  0.6523  0.9919  0.7096  1.0000
  O   O13       1.0  0.2581  0.4023  0.4596  1.0000
  O   O14       1.0  0.8477  0.008099999999999996  0.20960000000000004  1.0000
  O   O15       1.0  0.7419  0.0977  0.4596  1.0000
  O   O16       1.0  0.1523  0.4919  0.20960000000000004  1.0000
  Na  Na1       1.0  0.5  0.75  0.125  0.5000
  Na  Na2       1.0  0.0  0.75  0.375  0.5000
  Na  Na3       1.0  0.0  0.25  0.6250000000000001  0.5000
  Na  Na4       1.0  0.5  0.25  0.875  0.5000
