data_image0
_chemical_formula_structural       Ge12Zn8O32
_chemical_formula_sum              "Ge12 Zn8 O32"
_cell_length_a       8.213
_cell_length_b       8.213
_cell_length_c       8.213
_cell_angle_alpha    90.0
_cell_angle_beta     90.0
_cell_angle_gamma    90.0

_space_group_name_H-M_alt    "P 1"
_space_group_IT_number       1

loop_
  _space_group_symop_operation_xyz
  'x, y, z'

loop_
  _atom_site_type_symbol
  _atom_site_label
  _atom_site_symmetry_multiplicity
  _atom_site_fract_x
  _atom_site_fract_y
  _atom_site_fract_z
  _atom_site_occupancy
  Ge  Ge1       1.0  0.125  0.363  0.887  1.0000
  Ge  Ge2       1.0  0.625  0.137  0.113  1.0000
  Ge  Ge3       1.0  0.8749999999999999  0.863  0.613  1.0000
  Ge  Ge4       1.0  0.37499999999999994  0.6369999999999999  0.387  1.0000
  Ge  Ge5       1.0  0.887  0.125  0.363  1.0000
  Ge  Ge6       1.0  0.113  0.625  0.137  1.0000
  Ge  Ge7       1.0  0.613  0.8749999999999999  0.863  1.0000
  Ge  Ge8       1.0  0.387  0.37499999999999994  0.6369999999999999  1.0000
  Ge  Ge9       1.0  0.363  0.887  0.125  1.0000
  Ge  Ge10      1.0  0.863  0.613  0.8749999999999999  1.0000
  Ge  Ge11      1.0  0.6369999999999999  0.387  0.37499999999999994  1.0000
  Ge  Ge12      1.0  0.137  0.113  0.625  1.0000
  Zn  Zn1       1.0  0.008  0.008  0.008  1.0000
  Zn  Zn2       1.0  0.508  0.49199999999999994  0.9919999999999999  1.0000
  Zn  Zn3       1.0  0.9919999999999999  0.508  0.49199999999999994  1.0000
  Zn  Zn4       1.0  0.49199999999999994  0.9919999999999999  0.508  1.0000
  Zn  Zn5       1.0  0.242  0.242  0.242  1.0000
  Zn  Zn6       1.0  0.7579999999999999  0.742  0.258  1.0000
  Zn  Zn7       1.0  0.742  0.258  0.7579999999999999  1.0000
  Zn  Zn8       1.0  0.258  0.7579999999999999  0.742  1.0000
  O   O1        1.0  0.137  0.137  0.387  1.0000
  O   O2        1.0  0.6369999999999999  0.363  0.613  1.0000
  O   O3        1.0  0.863  0.6369999999999999  0.11299999999999999  1.0000
  O   O4        1.0  0.363  0.863  0.887  1.0000
  O   O5        1.0  0.387  0.137  0.137  1.0000
  O   O6        1.0  0.613  0.6369999999999999  0.363  1.0000
  O   O7        1.0  0.11299999999999999  0.863  0.6369999999999999  1.0000
  O   O8        1.0  0.887  0.363  0.863  1.0000
  O   O9        1.0  0.137  0.387  0.137  1.0000
  O   O10       1.0  0.6369999999999999  0.11299999999999999  0.863  1.0000
  O   O11       1.0  0.863  0.887  0.363  1.0000
  O   O12       1.0  0.363  0.613  0.6369999999999999  1.0000
  O   O13       1.0  0.11299999999999999  0.863  0.11299999999999999  1.0000
  O   O14       1.0  0.887  0.363  0.387  1.0000
  O   O15       1.0  0.11299999999999999  0.11299999999999999  0.863  1.0000
  O   O16       1.0  0.887  0.613  0.6369999999999999  1.0000
  O   O17       1.0  0.863  0.11299999999999999  0.11299999999999999  1.0000
  O   O18       1.0  0.137  0.613  0.387  1.0000
  O   O19       1.0  0.613  0.6369999999999999  0.887  1.0000
  O   O20       1.0  0.387  0.137  0.613  1.0000
  O   O21       1.0  0.613  0.387  0.137  1.0000
  O   O22       1.0  0.387  0.887  0.363  1.0000
  O   O23       1.0  0.363  0.387  0.887  1.0000
  O   O24       1.0  0.6369999999999999  0.887  0.613  1.0000
  O   O25       1.0  0.387  0.387  0.387  1.0000
  O   O26       1.0  0.887  0.11299999999999999  0.613  1.0000
  O   O27       1.0  0.613  0.887  0.11299999999999999  1.0000
  O   O28       1.0  0.11299999999999999  0.613  0.887  1.0000
  O   O29       1.0  0.863  0.863  0.863  1.0000
  O   O30       1.0  0.137  0.363  0.6369999999999999  1.0000
  O   O31       1.0  0.363  0.6369999999999999  0.137  1.0000
  O   O32       1.0  0.6369999999999999  0.137  0.363  1.0000
