data_image0
_chemical_formula_structural       Ba8Cu12S20Na4
_chemical_formula_sum              "Ba8 Cu12 S20 Na4"
_cell_length_a       16.4865
_cell_length_b       5.5188
_cell_length_c       10.330000000000002
_cell_angle_alpha    90.0
_cell_angle_beta     98.53399999999999
_cell_angle_gamma    90.0

_space_group_name_H-M_alt    "P 1"
_space_group_IT_number       1

loop_
  _space_group_symop_operation_xyz
  'x, y, z'

loop_
  _atom_site_type_symbol
  _atom_site_label
  _atom_site_symmetry_multiplicity
  _atom_site_fract_x
  _atom_site_fract_y
  _atom_site_fract_z
  _atom_site_occupancy
  Ba  Ba1       1.0  0.763609  0.0  0.30234  1.0000
  Ba  Ba2       1.0  0.23639100000000002  0.0  0.69766  1.0000
  Ba  Ba3       1.0  0.263609  0.5  0.30234  1.0000
  Ba  Ba4       1.0  0.736391  0.5  0.69766  1.0000
  Ba  Ba5       1.0  0.957839  0.5  0.29058  1.0000
  Ba  Ba6       1.0  0.042161000000000004  0.5  0.7094199999999999  1.0000
  Ba  Ba7       1.0  0.45783899999999983  0.0  0.29058  1.0000
  Ba  Ba8       1.0  0.542161  0.0  0.7094199999999999  1.0000
  Cu  Cu1       1.0  0.5  0.7383100000000001  0.0  1.0000
  Cu  Cu2       1.0  0.0  0.23831000000000002  0.0  1.0000
  Cu  Cu3       1.0  0.5  0.26169  0.0  1.0000
  Cu  Cu4       1.0  0.0  0.7616900000000001  0.0  1.0000
  Cu  Cu5       1.0  0.66882  0.7441000000000001  0.9903500000000001  1.0000
  Cu  Cu6       1.0  0.33118000000000003  0.7441000000000001  0.00965  1.0000
  Cu  Cu7       1.0  0.16881999999999997  0.24409999999999998  0.9903500000000001  1.0000
  Cu  Cu8       1.0  0.83118  0.24409999999999998  0.00965  1.0000
  Cu  Cu9       1.0  0.33118000000000003  0.2559  0.00965  1.0000
  Cu  Cu10      1.0  0.66882  0.2559  0.9903500000000001  1.0000
  Cu  Cu11      1.0  0.83118  0.7559  0.00965  1.0000
  Cu  Cu12      1.0  0.16881999999999997  0.7559  0.9903500000000001  1.0000
  S   S1        1.0  0.62408  0.1914  0.4701  1.0000
  S   S2        1.0  0.37592000000000003  0.1914  0.5299  1.0000
  S   S3        1.0  0.12407999999999997  0.6914000000000001  0.4701  1.0000
  S   S4        1.0  0.87592  0.6914000000000001  0.5299  1.0000
  S   S5        1.0  0.37592000000000003  0.8086000000000001  0.5299  1.0000
  S   S6        1.0  0.62408  0.8086000000000001  0.4701  1.0000
  S   S7        1.0  0.87592  0.3086  0.5299  1.0000
  S   S8        1.0  0.12407999999999997  0.3086  0.4701  1.0000
  S   S9        1.0  0.5976099999999998  0.0  0.12157000000000003  1.0000
  S   S10       1.0  0.40239000000000014  0.0  0.87843  1.0000
  S   S11       1.0  0.09760999999999997  0.5  0.12157000000000003  1.0000
  S   S12       1.0  0.9023900000000001  0.5  0.87843  1.0000
  S   S13       1.0  0.57006  0.5  0.8514299999999999  1.0000
  S   S14       1.0  0.42994  0.5  0.14857000000000004  1.0000
  S   S15       1.0  0.07006000000000001  0.0  0.8514299999999999  1.0000
  S   S16       1.0  0.92994  0.0  0.14857000000000004  1.0000
  S   S17       1.0  0.7612  0.5  0.14709  1.0000
  S   S18       1.0  0.2388  0.5  0.8529100000000002  1.0000
  S   S19       1.0  0.2612000000000001  0.0  0.14709  1.0000
  S   S20       1.0  0.7388  0.0  0.8529100000000002  1.0000
  Na  Na1       1.0  0.60577  0.5  0.23630000000000004  1.0000
  Na  Na2       1.0  0.39422999999999997  0.5  0.7636999999999999  1.0000
  Na  Na3       1.0  0.10577000000000013  0.0  0.23630000000000004  1.0000
  Na  Na4       1.0  0.8942299999999999  0.0  0.7636999999999999  1.0000
