data_image0
_chemical_formula_structural       Sm6Ge10
_chemical_formula_sum              "Sm6 Ge10"
_cell_length_a       6.9238
_cell_length_b       6.923799999999999
_cell_length_c       8.491
_cell_angle_alpha    90.0
_cell_angle_beta     90.0
_cell_angle_gamma    119.99999999999999

_space_group_name_H-M_alt    "P 1"
_space_group_IT_number       1

loop_
  _space_group_symop_operation_xyz
  'x, y, z'

loop_
  _atom_site_type_symbol
  _atom_site_label
  _atom_site_symmetry_multiplicity
  _atom_site_fract_x
  _atom_site_fract_y
  _atom_site_fract_z
  _atom_site_occupancy
  Sm  Sm1       1.0  0.33129999999999993  0.0  0.0  1.0000
  Sm  Sm2       1.0  0.0  0.33129999999999993  0.0  1.0000
  Sm  Sm3       1.0  0.6687  0.6687  0.0  1.0000
  Sm  Sm4       1.0  0.33129999999999993  0.0  0.49999999999999994  1.0000
  Sm  Sm5       1.0  0.0  0.33129999999999993  0.49999999999999994  1.0000
  Sm  Sm6       1.0  0.6687  0.6687  0.49999999999999994  1.0000
  Ge  Ge1       1.0  0.3945999999999999  0.33179999999999993  0.24999999999999994  1.0000
  Ge  Ge2       1.0  0.6682000000000001  0.06280000000000002  0.24999999999999994  1.0000
  Ge  Ge3       1.0  0.9371999999999999  0.6054  0.24999999999999994  1.0000
  Ge  Ge4       1.0  0.33179999999999993  0.39459999999999995  0.75  1.0000
  Ge  Ge5       1.0  0.06280000000000002  0.6682000000000001  0.75  1.0000
  Ge  Ge6       1.0  0.6054  0.9371999999999999  0.75  1.0000
  Ge  Ge7       1.0  0.3332999999999999  0.6666999999999998  0.24999999999999994  1.0000
  Ge  Ge8       1.0  0.6666999999999997  0.3332999999999999  0.75  1.0000
  Ge  Ge9       1.0  0.0  0.0  0.24999999999999994  1.0000
  Ge  Ge10      1.0  0.0  0.0  0.75  1.0000
