data_image0
_chemical_formula_structural       Te8In8
_chemical_formula_sum              "Te8 In8"
_cell_length_a       6.24929
_cell_length_b       6.24929
_cell_length_c       12.49988
_cell_angle_alpha    90.0
_cell_angle_beta     90.0
_cell_angle_gamma    90.0

_space_group_name_H-M_alt    "P 1"
_space_group_IT_number       1

loop_
  _space_group_symop_operation_xyz
  'x, y, z'

loop_
  _atom_site_type_symbol
  _atom_site_label
  _atom_site_symmetry_multiplicity
  _atom_site_fract_x
  _atom_site_fract_y
  _atom_site_fract_z
  _atom_site_occupancy
  Te  Te1       1.0  0.265  0.23300000000000004  0.13249  1.0000
  Te  Te2       1.0  0.23300000000000004  0.735  0.86751  1.0000
  Te  Te3       1.0  0.735  0.7669999999999999  0.13249  1.0000
  Te  Te4       1.0  0.7669999999999999  0.265  0.86751  1.0000
  Te  Te5       1.0  0.265  0.7669999999999999  0.36751  1.0000
  Te  Te6       1.0  0.7669999999999999  0.735  0.6324900000000001  1.0000
  Te  Te7       1.0  0.735  0.23300000000000004  0.36751  1.0000
  Te  Te8       1.0  0.23300000000000004  0.265  0.6324900000000001  1.0000
  In  In1       1.0  0.0  0.0  0.0  0.7300
  In  In2       1.0  0.0  0.0  0.5  0.7300
  In  In3       1.0  0.5  0.5  0.0  0.7100
  In  In4       1.0  0.5  0.5  0.5  0.7100
  In  In5       1.0  0.5  0.0  0.25  0.2400
  In  In6       1.0  0.0  0.5  0.7500000000000001  0.2400
  In  In7       1.0  0.0  0.5  0.25  0.7200
  In  In8       1.0  0.5  0.0  0.7500000000000001  0.7200
  Ag  Ag1       1.0  0.0  0.0  0.0  0.2000
  Ag  Ag2       1.0  0.0  0.0  0.5  0.2000
  Ag  Ag3       1.0  0.5  0.5  0.0  0.2000
  Ag  Ag4       1.0  0.5  0.5  0.5  0.2000
  Ag  Ag5       1.0  0.5  0.0  0.25  0.2000
  Ag  Ag6       1.0  0.0  0.5  0.7500000000000001  0.2000
  Ag  Ag7       1.0  0.0  0.5  0.25  0.2000
  Ag  Ag8       1.0  0.5  0.0  0.7500000000000001  0.2000
