data_image0
_chemical_formula_structural       PbGe2O6
_chemical_formula_sum              "Pb1 Ge2 O6"
_cell_length_a       5.131
_cell_length_b       5.130999999999999
_cell_length_c       5.486
_cell_angle_alpha    90.0
_cell_angle_beta     90.0
_cell_angle_gamma    119.99999999999999

_space_group_name_H-M_alt    "P 1"
_space_group_IT_number       1

loop_
  _space_group_symop_operation_xyz
  'x, y, z'

loop_
  _atom_site_type_symbol
  _atom_site_label
  _atom_site_symmetry_multiplicity
  _atom_site_fract_x
  _atom_site_fract_y
  _atom_site_fract_z
  _atom_site_occupancy
  Pb  Pb1       1.0  0.0  0.0  0.30974999999999997  1.0000
  Ge  Ge1       1.0  0.33329999999999993  0.6667  0.8096  0.5000
  Ge  Ge2       1.0  0.6667  0.3333  0.8096  0.5000
  O   O1        1.0  0.374  0.374  0.003  1.0000
  O   O2        1.0  0.626  0.0  0.003  1.0000
  O   O3        1.0  3.449078438131143e-17  0.6260000000000001  0.003  1.0000
  O   O4        1.0  3.392747223508085e-17  0.38500000000000006  0.607  1.0000
  O   O5        1.0  0.615  0.615  0.607  1.0000
  O   O6        1.0  0.38499999999999995  0.0  0.607  1.0000
  Te  Te1       1.0  0.33329999999999993  0.6667  0.8096  0.5000
  Te  Te2       1.0  0.6667  0.3333  0.8096  0.5000
