data_image0
_chemical_formula_structural       Li4O4
_chemical_formula_sum              "Li4 O4"
_cell_length_a       3.183
_cell_length_b       3.183
_cell_length_c       7.7258
_cell_angle_alpha    90.0
_cell_angle_beta     90.0
_cell_angle_gamma    119.99999999999999

_space_group_name_H-M_alt    "P 1"
_space_group_IT_number       1

loop_
  _space_group_symop_operation_xyz
  'x, y, z'

loop_
  _atom_site_type_symbol
  _atom_site_label
  _atom_site_symmetry_multiplicity
  _atom_site_fract_x
  _atom_site_fract_y
  _atom_site_fract_z
  _atom_site_occupancy
  Li  Li1       1.0  0.0  0.0  0.0  1.0000
  Li  Li2       1.0  0.0  0.0  0.5  1.0000
  Li  Li3       1.0  0.3333  0.6667000000000001  0.25  1.0000
  Li  Li4       1.0  0.6666  0.3333  0.75  1.0000
  O   O1        1.0  0.3333  0.6667000000000001  0.8503000000000001  1.0000
  O   O2        1.0  0.6666  0.3333  0.3503  1.0000
  O   O3        1.0  0.3333  0.6667000000000001  0.6496999999999999  1.0000
  O   O4        1.0  0.6666  0.3333  0.1497  1.0000
