data_image0
_chemical_formula_structural       Ag4N12
_chemical_formula_sum              "Ag4 N12"
_cell_length_a       5.58
_cell_length_b       5.93
_cell_length_c       6.04
_cell_angle_alpha    90.0
_cell_angle_beta     90.0
_cell_angle_gamma    90.0

_space_group_name_H-M_alt    "P 1"
_space_group_IT_number       1

loop_
  _space_group_symop_operation_xyz
  'x, y, z'

loop_
  _atom_site_type_symbol
  _atom_site_label
  _atom_site_symmetry_multiplicity
  _atom_site_fract_x
  _atom_site_fract_y
  _atom_site_fract_z
  _atom_site_occupancy
  Ag  Ag1       1.0  0.5  0.0  0.25  1.0000
  Ag  Ag2       1.0  0.5  0.0  0.7500000000000001  1.0000
  Ag  Ag3       1.0  0.0  0.5  0.7500000000000001  1.0000
  Ag  Ag4       1.0  0.0  0.5  0.25  1.0000
  N   N1        1.0  0.0  0.0  0.0  1.0000
  N   N2        1.0  0.0  0.0  0.5  1.0000
  N   N3        1.0  0.5  0.5  0.5  1.0000
  N   N4        1.0  0.5  0.5  0.0  1.0000
  N   N5        1.0  0.145  0.145  0.0  1.0000
  N   N6        1.0  0.855  0.8550000000000001  0.0  1.0000
  N   N7        1.0  0.855  0.145  0.5  1.0000
  N   N8        1.0  0.145  0.8550000000000001  0.5  1.0000
  N   N9        1.0  0.645  0.645  0.5  1.0000
  N   N10       1.0  0.355  0.355  0.5  1.0000
  N   N11       1.0  0.355  0.645  0.0  1.0000
  N   N12       1.0  0.645  0.355  0.0  1.0000
