data_image0
_chemical_formula_structural       Cd54Se80O4
_chemical_formula_sum              "Cd54 Se80 O4"
_cell_length_a       24.412
_cell_length_b       24.412
_cell_length_c       24.412
_cell_angle_alpha    90.0
_cell_angle_beta     90.0
_cell_angle_gamma    90.0

_space_group_name_H-M_alt    "P 1"
_space_group_IT_number       1

loop_
  _space_group_symop_operation_xyz
  'x, y, z'

loop_
  _atom_site_type_symbol
  _atom_site_label
  _atom_site_symmetry_multiplicity
  _atom_site_fract_x
  _atom_site_fract_y
  _atom_site_fract_z
  _atom_site_occupancy
  Cd  Cd1       1.0  0.0  0.87581  0.0  1.0000
  Cd  Cd2       1.0  0.0  0.12418999999999998  0.0  1.0000
  Cd  Cd3       1.0  0.0  0.0  0.87581  1.0000
  Cd  Cd4       1.0  0.0  0.0  0.12418999999999998  1.0000
  Cd  Cd5       1.0  0.87581  0.0  0.0  1.0000
  Cd  Cd6       1.0  0.12418999999999998  0.0  0.0  1.0000
  Cd  Cd7       1.0  0.8755  0.8755  0.1245  1.0000
  Cd  Cd8       1.0  0.1245  0.1245  0.1245  1.0000
  Cd  Cd9       1.0  0.1245  0.8755  0.8755  1.0000
  Cd  Cd10      1.0  0.8755  0.1245  0.8755  1.0000
  Cd  Cd11      1.0  0.87701  0.87701  0.87701  1.0000
  Cd  Cd12      1.0  0.12299  0.12299  0.87701  1.0000
  Cd  Cd13      1.0  0.12299  0.87701  0.12299  1.0000
  Cd  Cd14      1.0  0.87701  0.12299  0.12299  1.0000
  Cd  Cd15      1.0  0.8755800000000001  0.75305  0.0011  1.0000
  Cd  Cd16      1.0  0.12442  0.24695  0.0011  1.0000
  Cd  Cd17      1.0  0.12442  0.75305  0.9988999999999999  1.0000
  Cd  Cd18      1.0  0.8755800000000001  0.24695  0.9988999999999999  1.0000
  Cd  Cd19      1.0  0.0011  0.8755800000000001  0.75305  1.0000
  Cd  Cd20      1.0  0.0011  0.12442  0.24695  1.0000
  Cd  Cd21      1.0  0.9988999999999999  0.12442  0.75305  1.0000
  Cd  Cd22      1.0  0.9988999999999999  0.8755800000000001  0.24695  1.0000
  Cd  Cd23      1.0  0.75305  0.0011  0.8755800000000001  1.0000
  Cd  Cd24      1.0  0.24695  0.0011  0.12442  1.0000
  Cd  Cd25      1.0  0.75305  0.9988999999999999  0.12442  1.0000
  Cd  Cd26      1.0  0.24695  0.9988999999999999  0.8755800000000001  1.0000
  Cd  Cd27      1.0  0.75305  0.8755800000000001  0.0011  1.0000
  Cd  Cd28      1.0  0.24695  0.12442  0.0011  1.0000
  Cd  Cd29      1.0  0.75305  0.12442  0.9988999999999999  1.0000
  Cd  Cd30      1.0  0.24695  0.8755800000000001  0.9988999999999999  1.0000
  Cd  Cd31      1.0  0.8755800000000001  0.0011  0.75305  1.0000
  Cd  Cd32      1.0  0.12442  0.0011  0.24695  1.0000
  Cd  Cd33      1.0  0.12442  0.9988999999999999  0.75305  1.0000
  Cd  Cd34      1.0  0.8755800000000001  0.9988999999999999  0.24695  1.0000
  Cd  Cd35      1.0  0.0011  0.75305  0.8755800000000001  1.0000
  Cd  Cd36      1.0  0.0011  0.24695  0.12442  1.0000
  Cd  Cd37      1.0  0.9988999999999999  0.75305  0.12442  1.0000
  Cd  Cd38      1.0  0.9988999999999999  0.24695  0.8755800000000001  1.0000
  Cd  Cd39      1.0  0.837  0.7126  0.837  1.0000
  Cd  Cd40      1.0  0.163  0.2874  0.837  1.0000
  Cd  Cd41      1.0  0.163  0.7126  0.163  1.0000
  Cd  Cd42      1.0  0.837  0.2874  0.163  1.0000
  Cd  Cd43      1.0  0.837  0.837  0.7126  1.0000
  Cd  Cd44      1.0  0.837  0.163  0.2874  1.0000
  Cd  Cd45      1.0  0.163  0.163  0.7126  1.0000
  Cd  Cd46      1.0  0.163  0.837  0.2874  1.0000
  Cd  Cd47      1.0  0.7126  0.837  0.837  1.0000
  Cd  Cd48      1.0  0.2874  0.837  0.163  1.0000
  Cd  Cd49      1.0  0.7126  0.163  0.163  1.0000
  Cd  Cd50      1.0  0.2874  0.163  0.837  1.0000
  Cd  Cd51      1.0  0.7154  0.7154  0.7154  1.0000
  Cd  Cd52      1.0  0.2846  0.2846  0.7154  1.0000
  Cd  Cd53      1.0  0.2846  0.7154  0.2846  1.0000
  Cd  Cd54      1.0  0.7154  0.2846  0.2846  1.0000
  Se  Se1       1.0  0.93775  0.93775  0.06225  1.0000
  Se  Se2       1.0  0.06225  0.06225  0.06225  1.0000
  Se  Se3       1.0  0.06225  0.93775  0.93775  1.0000
  Se  Se4       1.0  0.93775  0.06225  0.93775  1.0000
  Se  Se5       1.0  0.9387699999999999  0.8139000000000001  0.9387699999999999  1.0000
  Se  Se6       1.0  0.06123  0.1861  0.9387699999999999  1.0000
  Se  Se7       1.0  0.06123  0.8139000000000001  0.06123  1.0000
  Se  Se8       1.0  0.9387699999999999  0.1861  0.06123  1.0000
  Se  Se9       1.0  0.9387699999999999  0.9387699999999999  0.8139000000000001  1.0000
  Se  Se10      1.0  0.9387699999999999  0.06123  0.1861  1.0000
  Se  Se11      1.0  0.06123  0.06123  0.8139000000000001  1.0000
  Se  Se12      1.0  0.06123  0.9387699999999999  0.1861  1.0000
  Se  Se13      1.0  0.8139000000000001  0.9387699999999999  0.9387699999999999  1.0000
  Se  Se14      1.0  0.1861  0.9387699999999999  0.06123  1.0000
  Se  Se15      1.0  0.8139000000000001  0.06123  0.06123  1.0000
  Se  Se16      1.0  0.1861  0.06123  0.9387699999999999  1.0000
  Se  Se17      1.0  0.8153000000000001  0.8153000000000001  0.8153000000000001  1.0000
  Se  Se18      1.0  0.1847  0.1847  0.8153000000000001  1.0000
  Se  Se19      1.0  0.1847  0.8153000000000001  0.1847  1.0000
  Se  Se20      1.0  0.8153000000000001  0.1847  0.1847  1.0000
  Se  Se21      1.0  0.8122  0.8122  0.0655  1.0000
  Se  Se22      1.0  0.1878  0.1878  0.0655  1.0000
  Se  Se23      1.0  0.1878  0.8122  0.9345  1.0000
  Se  Se24      1.0  0.8122  0.1878  0.9345  1.0000
  Se  Se25      1.0  0.0655  0.8122  0.8122  1.0000
  Se  Se26      1.0  0.0655  0.1878  0.1878  1.0000
  Se  Se27      1.0  0.9345  0.1878  0.8122  1.0000
  Se  Se28      1.0  0.9345  0.8122  0.1878  1.0000
  Se  Se29      1.0  0.8122  0.0655  0.8122  1.0000
  Se  Se30      1.0  0.1878  0.0655  0.1878  1.0000
  Se  Se31      1.0  0.8122  0.9345  0.1878  1.0000
  Se  Se32      1.0  0.1878  0.9345  0.8122  1.0000
  Se  Se33      1.0  0.0607  0.6880999999999999  0.9393  1.0000
  Se  Se34      1.0  0.9393  0.3119  0.9393  1.0000
  Se  Se35      1.0  0.9393  0.6880999999999999  0.0607  1.0000
  Se  Se36      1.0  0.0607  0.3119  0.0607  1.0000
  Se  Se37      1.0  0.9393  0.0607  0.6880999999999999  1.0000
  Se  Se38      1.0  0.9393  0.9393  0.3119  1.0000
  Se  Se39      1.0  0.0607  0.9393  0.6880999999999999  1.0000
  Se  Se40      1.0  0.0607  0.0607  0.3119  1.0000
  Se  Se41      1.0  0.6880999999999999  0.9393  0.0607  1.0000
  Se  Se42      1.0  0.3119  0.9393  0.9393  1.0000
  Se  Se43      1.0  0.6880999999999999  0.0607  0.9393  1.0000
  Se  Se44      1.0  0.3119  0.0607  0.0607  1.0000
  Se  Se45      1.0  0.8105  0.694  0.9383  1.0000
  Se  Se46      1.0  0.1895  0.306  0.9383  1.0000
  Se  Se47      1.0  0.1895  0.694  0.0617  1.0000
  Se  Se48      1.0  0.8105  0.306  0.0617  1.0000
  Se  Se49      1.0  0.9383  0.8105  0.694  1.0000
  Se  Se50      1.0  0.9383  0.1895  0.306  1.0000
  Se  Se51      1.0  0.0617  0.1895  0.694  1.0000
  Se  Se52      1.0  0.0617  0.8105  0.306  1.0000
  Se  Se53      1.0  0.694  0.9383  0.8105  1.0000
  Se  Se54      1.0  0.306  0.9383  0.1895  1.0000
  Se  Se55      1.0  0.694  0.0617  0.1895  1.0000
  Se  Se56      1.0  0.306  0.0617  0.8105  1.0000
  Se  Se57      1.0  0.694  0.8105  0.9383  1.0000
  Se  Se58      1.0  0.306  0.1895  0.9383  1.0000
  Se  Se59      1.0  0.694  0.1895  0.0617  1.0000
  Se  Se60      1.0  0.306  0.8105  0.0617  1.0000
  Se  Se61      1.0  0.8105  0.9383  0.694  1.0000
  Se  Se62      1.0  0.1895  0.9383  0.306  1.0000
  Se  Se63      1.0  0.1895  0.0617  0.694  1.0000
  Se  Se64      1.0  0.8105  0.0617  0.306  1.0000
  Se  Se65      1.0  0.9383  0.694  0.8105  1.0000
  Se  Se66      1.0  0.9383  0.306  0.1895  1.0000
  Se  Se67      1.0  0.0617  0.694  0.1895  1.0000
  Se  Se68      1.0  0.0617  0.306  0.8105  1.0000
  Se  Se69      1.0  0.7761000000000001  0.6476  0.7761000000000001  1.0000
  Se  Se70      1.0  0.2239  0.3524  0.7761000000000001  1.0000
  Se  Se71      1.0  0.2239  0.6476  0.2239  1.0000
  Se  Se72      1.0  0.7761000000000001  0.3524  0.2239  1.0000
  Se  Se73      1.0  0.7761000000000001  0.7761000000000001  0.6476  1.0000
  Se  Se74      1.0  0.7761000000000001  0.2239  0.3524  1.0000
  Se  Se75      1.0  0.2239  0.2239  0.6476  1.0000
  Se  Se76      1.0  0.2239  0.7761000000000001  0.3524  1.0000
  Se  Se77      1.0  0.6476  0.7761000000000001  0.7761000000000001  1.0000
  Se  Se78      1.0  0.3524  0.7761000000000001  0.2239  1.0000
  Se  Se79      1.0  0.6476  0.2239  0.2239  1.0000
  Se  Se80      1.0  0.3524  0.2239  0.7761000000000001  1.0000
  O   O1        1.0  0.6559999999999999  0.6559999999999999  0.6559999999999999  1.0000
  O   O2        1.0  0.344  0.344  0.6559999999999999  1.0000
  O   O3        1.0  0.344  0.6559999999999999  0.344  1.0000
  O   O4        1.0  0.6559999999999999  0.344  0.344  1.0000
