data_image0
_chemical_formula_structural       Ru8Mg12
_chemical_formula_sum              "Ru8 Mg12"
_cell_length_a       6.9352
_cell_length_b       6.9352
_cell_length_c       6.9352
_cell_angle_alpha    90.0
_cell_angle_beta     90.0
_cell_angle_gamma    90.0

_space_group_name_H-M_alt    "P 1"
_space_group_IT_number       1

loop_
  _space_group_symop_operation_xyz
  'x, y, z'

loop_
  _atom_site_type_symbol
  _atom_site_label
  _atom_site_symmetry_multiplicity
  _atom_site_fract_x
  _atom_site_fract_y
  _atom_site_fract_z
  _atom_site_occupancy
  Ru  Ru1       1.0  0.07378  0.07378  0.07378  1.0000
  Ru  Ru2       1.0  0.42622  0.9262200000000002  0.57378  1.0000
  Ru  Ru3       1.0  0.9262200000000002  0.57378  0.42622  1.0000
  Ru  Ru4       1.0  0.57378  0.42622  0.9262200000000002  1.0000
  Ru  Ru5       1.0  0.82378  0.32378000000000007  0.17622  1.0000
  Ru  Ru6       1.0  0.67622  0.67622  0.67622  1.0000
  Ru  Ru7       1.0  0.32378000000000007  0.17622  0.82378  1.0000
  Ru  Ru8       1.0  0.17622  0.82378  0.32378000000000007  1.0000
  Mg  Mg1       1.0  0.125  0.20512000000000005  0.45512000000000014  1.0000
  Mg  Mg2       1.0  0.375  0.79488  0.9551200000000001  1.0000
  Mg  Mg3       1.0  0.875  0.70512  0.04487999999999992  1.0000
  Mg  Mg4       1.0  0.6250000000000001  0.29488  0.5448799999999999  1.0000
  Mg  Mg5       1.0  0.45512000000000014  0.125  0.20512000000000005  1.0000
  Mg  Mg6       1.0  0.9551200000000001  0.375  0.79488  1.0000
  Mg  Mg7       1.0  0.04487999999999992  0.875  0.70512  1.0000
  Mg  Mg8       1.0  0.5448799999999999  0.6250000000000001  0.29488  1.0000
  Mg  Mg9       1.0  0.20512000000000005  0.45512000000000014  0.125  1.0000
  Mg  Mg10      1.0  0.79488  0.9551200000000001  0.375  1.0000
  Mg  Mg11      1.0  0.70512  0.04487999999999992  0.875  1.0000
  Mg  Mg12      1.0  0.29488  0.5448799999999999  0.6250000000000001  1.0000
