data_image0
_chemical_formula_structural       Mo44Na24Li4O144
_chemical_formula_sum              "Mo44 Na24 Li4 O144"
_cell_length_a       7.225
_cell_length_b       17.863
_cell_length_c       22.086
_cell_angle_alpha    90.0
_cell_angle_beta     90.16199999999999
_cell_angle_gamma    90.0

_space_group_name_H-M_alt    "P 1"
_space_group_IT_number       1

loop_
  _space_group_symop_operation_xyz
  'x, y, z'

loop_
  _atom_site_type_symbol
  _atom_site_label
  _atom_site_symmetry_multiplicity
  _atom_site_fract_x
  _atom_site_fract_y
  _atom_site_fract_z
  _atom_site_occupancy
  Mo  Mo1       1.0  0.94996  0.09121  0.08276  1.0000
  Mo  Mo2       1.0  0.050039999999999994  0.09121  0.41723999999999994  1.0000
  Mo  Mo3       1.0  0.4499600000000001  0.59121  0.08276  1.0000
  Mo  Mo4       1.0  0.55004  0.59121  0.41723999999999994  1.0000
  Mo  Mo5       1.0  0.05004  0.9087900000000001  0.9172400000000002  1.0000
  Mo  Mo6       1.0  0.94996  0.9087900000000001  0.58276  1.0000
  Mo  Mo7       1.0  0.55004  0.40879  0.9172400000000002  1.0000
  Mo  Mo8       1.0  0.4499600000000001  0.40879  0.58276  1.0000
  Mo  Mo9       1.0  0.95704  0.09488  0.9133  1.0000
  Mo  Mo10      1.0  0.042960000000000005  0.09488  0.5867  1.0000
  Mo  Mo11      1.0  0.45704000000000006  0.59488  0.9133  1.0000
  Mo  Mo12      1.0  0.54296  0.59488  0.5867  1.0000
  Mo  Mo13      1.0  0.042960000000000005  0.9051200000000001  0.0867  1.0000
  Mo  Mo14      1.0  0.95704  0.9051200000000001  0.4133  1.0000
  Mo  Mo15      1.0  0.54296  0.40512  0.0867  1.0000
  Mo  Mo16      1.0  0.45704000000000006  0.40512  0.4133  1.0000
  Mo  Mo17      1.0  0.28669  0.16698  0.17148  1.0000
  Mo  Mo18      1.0  0.71331  0.16698  0.32852000000000003  1.0000
  Mo  Mo19      1.0  0.78669  0.6669800000000001  0.17148  1.0000
  Mo  Mo20      1.0  0.21331  0.6669800000000001  0.32852000000000003  1.0000
  Mo  Mo21      1.0  0.71331  0.83302  0.82852  1.0000
  Mo  Mo22      1.0  0.28669  0.83302  0.67148  1.0000
  Mo  Mo23      1.0  0.21331  0.33302  0.82852  1.0000
  Mo  Mo24      1.0  0.78669  0.33302  0.67148  1.0000
  Mo  Mo25      1.0  0.0  0.06761  0.25  1.0000
  Mo  Mo26      1.0  0.5  0.56761  0.25  1.0000
  Mo  Mo27      1.0  0.0  0.93239  0.75  1.0000
  Mo  Mo28      1.0  0.5  0.43239000000000005  0.75  1.0000
  Mo  Mo29      1.0  0.29608  0.15641  0.00098  1.0000
  Mo  Mo30      1.0  0.70392  0.15641  0.49902  1.0000
  Mo  Mo31      1.0  0.7960800000000001  0.6564099999999999  0.00098  1.0000
  Mo  Mo32      1.0  0.20392  0.6564099999999999  0.49902  1.0000
  Mo  Mo33      1.0  0.70392  0.8435900000000001  0.99902  1.0000
  Mo  Mo34      1.0  0.29608  0.8435900000000001  0.50098  1.0000
  Mo  Mo35      1.0  0.20392  0.34359  0.99902  1.0000
  Mo  Mo36      1.0  0.7960800000000001  0.34359  0.50098  1.0000
  Mo  Mo37      1.0  0.28716  0.15684  0.8241799999999999  1.0000
  Mo  Mo38      1.0  0.7128399999999999  0.15684  0.67582  1.0000
  Mo  Mo39      1.0  0.7871600000000002  0.65684  0.8241799999999999  1.0000
  Mo  Mo40      1.0  0.21283999999999997  0.65684  0.67582  1.0000
  Mo  Mo41      1.0  0.7128399999999999  0.84316  0.17582  1.0000
  Mo  Mo42      1.0  0.28716  0.84316  0.32418  1.0000
  Mo  Mo43      1.0  0.21283999999999997  0.34316  0.17582  1.0000
  Mo  Mo44      1.0  0.7871600000000002  0.34316  0.32418  1.0000
  Na  Na1       1.0  0.7353  0.24829  0.82946  1.0000
  Na  Na2       1.0  0.26470000000000005  0.24829  0.67054  1.0000
  Na  Na3       1.0  0.23530000000000006  0.74829  0.82946  1.0000
  Na  Na4       1.0  0.7647  0.74829  0.67054  1.0000
  Na  Na5       1.0  0.26470000000000005  0.75171  0.17054  1.0000
  Na  Na6       1.0  0.7353  0.75171  0.32946  1.0000
  Na  Na7       1.0  0.7647  0.25171  0.17054  1.0000
  Na  Na8       1.0  0.23530000000000006  0.25171  0.32946  1.0000
  Na  Na9       1.0  0.5  0.9951  0.25  1.0000
  Na  Na10      1.0  0.0  0.49510000000000004  0.25  1.0000
  Na  Na11      1.0  0.5  0.004900000000000001  0.75  1.0000
  Na  Na12      1.0  0.0  0.5049  0.75  1.0000
  Na  Na13      1.0  0.4865  0.9987100000000001  0.08703  0.9740
  Na  Na14      1.0  0.5135000000000001  0.9987100000000001  0.41297  0.9740
  Na  Na15      1.0  0.9864999999999999  0.49871  0.08703  0.9740
  Na  Na16      1.0  0.013500000000000012  0.49871  0.41297  0.9740
  Na  Na17      1.0  0.5135000000000001  0.00129  0.9129700000000001  0.9740
  Na  Na18      1.0  0.4865  0.00129  0.5870299999999999  0.9740
  Na  Na19      1.0  0.013500000000000012  0.50129  0.9129700000000001  0.9740
  Na  Na20      1.0  0.9864999999999999  0.50129  0.5870299999999999  0.9740
  Na  Na21      1.0  0.75  0.25  0.0  0.8840
  Na  Na22      1.0  0.25  0.25  0.5  0.8840
  Na  Na23      1.0  0.25  0.75  0.0  0.8840
  Na  Na24      1.0  0.75  0.75  0.5  0.8840
  Li  Li1       1.0  0.0  0.08000000000000002  0.75  0.1700
  Li  Li2       1.0  0.5  0.5800000000000001  0.75  0.1700
  Li  Li3       1.0  0.0  0.92  0.25  0.1700
  Li  Li4       1.0  0.5  0.42  0.25  0.1700
  O   O1        1.0  0.8364  0.009300000000000001  0.91649  1.0000
  O   O2        1.0  0.1636  0.009300000000000001  0.58351  1.0000
  O   O3        1.0  0.3364000000000001  0.5093  0.91649  1.0000
  O   O4        1.0  0.6636000000000001  0.5093  0.58351  1.0000
  O   O5        1.0  0.1636  0.9907  0.08350999999999997  1.0000
  O   O6        1.0  0.8364  0.9907  0.41648999999999997  1.0000
  O   O7        1.0  0.6636000000000001  0.4907000000000001  0.08350999999999997  1.0000
  O   O8        1.0  0.3364000000000001  0.4907000000000001  0.41648999999999997  1.0000
  O   O9        1.0  0.18410000000000007  0.0087  0.257  1.0000
  O   O10       1.0  0.8159000000000001  0.0087  0.243  1.0000
  O   O11       1.0  0.6841  0.5087  0.257  1.0000
  O   O12       1.0  0.31589999999999996  0.5087  0.243  1.0000
  O   O13       1.0  0.8159000000000001  0.9912999999999998  0.7429999999999999  1.0000
  O   O14       1.0  0.18410000000000007  0.9912999999999998  0.757  1.0000
  O   O15       1.0  0.31589999999999996  0.49130000000000007  0.7429999999999999  1.0000
  O   O16       1.0  0.6841  0.49130000000000007  0.757  1.0000
  O   O17       1.0  0.0629  0.256  0.8312  1.0000
  O   O18       1.0  0.9371  0.256  0.6688  1.0000
  O   O19       1.0  0.5629  0.756  0.8312  1.0000
  O   O20       1.0  0.43710000000000004  0.756  0.6688  1.0000
  O   O21       1.0  0.9371  0.7440000000000001  0.16879999999999995  1.0000
  O   O22       1.0  0.0629  0.7440000000000001  0.33119999999999994  1.0000
  O   O23       1.0  0.43710000000000004  0.244  0.16879999999999995  1.0000
  O   O24       1.0  0.5629  0.244  0.33119999999999994  1.0000
  O   O25       1.0  0.8115  0.0125  0.082  1.0000
  O   O26       1.0  0.1885  0.0125  0.4179999999999999  1.0000
  O   O27       1.0  0.31150000000000017  0.5125  0.082  1.0000
  O   O28       1.0  0.6885  0.5125  0.4179999999999999  1.0000
  O   O29       1.0  0.1885  0.9875000000000002  0.918  1.0000
  O   O30       1.0  0.8115  0.9875000000000002  0.582  1.0000
  O   O31       1.0  0.6885  0.48750000000000004  0.918  1.0000
  O   O32       1.0  0.31150000000000017  0.48750000000000004  0.582  1.0000
  O   O33       1.0  0.4298  0.2375  0.0005  1.0000
  O   O34       1.0  0.5702  0.2375  0.4995  1.0000
  O   O35       1.0  0.9298  0.7375  0.0005  1.0000
  O   O36       1.0  0.07019999999999998  0.7375  0.4995  1.0000
  O   O37       1.0  0.5702  0.7625  0.9995  1.0000
  O   O38       1.0  0.4298  0.7625  0.5005  1.0000
  O   O39       1.0  0.07019999999999998  0.26250000000000007  0.9995  1.0000
  O   O40       1.0  0.9298  0.26250000000000007  0.5005  1.0000
  O   O41       1.0  0.4138  0.24100000000000002  0.8417  1.0000
  O   O42       1.0  0.5862  0.24100000000000002  0.6583  1.0000
  O   O43       1.0  0.9138000000000001  0.741  0.8417  1.0000
  O   O44       1.0  0.0862  0.741  0.6583  1.0000
  O   O45       1.0  0.5862  0.759  0.1583  1.0000
  O   O46       1.0  0.4138  0.759  0.3416999999999999  1.0000
  O   O47       1.0  0.0862  0.259  0.1583  1.0000
  O   O48       1.0  0.9138000000000001  0.259  0.3416999999999999  1.0000
  O   O49       1.0  0.04  0.10040000000000002  0.83715  1.0000
  O   O50       1.0  0.96  0.10040000000000002  0.66285  1.0000
  O   O51       1.0  0.54  0.6004  0.83715  1.0000
  O   O52       1.0  0.4600000000000001  0.6004  0.66285  1.0000
  O   O53       1.0  0.96  0.8996  0.16285000000000005  1.0000
  O   O54       1.0  0.04  0.8996  0.33714999999999984  1.0000
  O   O55       1.0  0.4600000000000001  0.39959999999999996  0.16285000000000005  1.0000
  O   O56       1.0  0.54  0.39959999999999996  0.33714999999999984  1.0000
  O   O57       1.0  0.7382  0.1602  0.7518999999999999  1.0000
  O   O58       1.0  0.26180000000000003  0.1602  0.7481000000000001  1.0000
  O   O59       1.0  0.23819999999999997  0.6602  0.7518999999999999  1.0000
  O   O60       1.0  0.7618000000000001  0.6602  0.7481000000000001  1.0000
  O   O61       1.0  0.26180000000000003  0.8398000000000001  0.24810000000000007  1.0000
  O   O62       1.0  0.7382  0.8398000000000001  0.2519  1.0000
  O   O63       1.0  0.7618000000000001  0.3398  0.24810000000000007  1.0000
  O   O64       1.0  0.23819999999999997  0.3398  0.2519  1.0000
  O   O65       1.0  0.2093  0.15340000000000006  0.9216  1.0000
  O   O66       1.0  0.7907  0.15340000000000006  0.5784  1.0000
  O   O67       1.0  0.7093  0.6534  0.9216  1.0000
  O   O68       1.0  0.29069999999999996  0.6534  0.5784  1.0000
  O   O69       1.0  0.7907  0.8466  0.07840000000000003  1.0000
  O   O70       1.0  0.2093  0.8466  0.4215999999999999  1.0000
  O   O71       1.0  0.29069999999999996  0.34659999999999996  0.07840000000000003  1.0000
  O   O72       1.0  0.7093  0.34659999999999996  0.4215999999999999  1.0000
  O   O73       1.0  0.0275  0.0968  0.16486  1.0000
  O   O74       1.0  0.9725  0.0968  0.33514  1.0000
  O   O75       1.0  0.5275  0.5968  0.16486  1.0000
  O   O76       1.0  0.4725  0.5968  0.33514  1.0000
  O   O77       1.0  0.9725  0.9032  0.83514  1.0000
  O   O78       1.0  0.0275  0.9032  0.66486  1.0000
  O   O79       1.0  0.4725  0.4032  0.83514  1.0000
  O   O80       1.0  0.5275  0.4032  0.66486  1.0000
  O   O81       1.0  0.2069  0.1538  0.08222  1.0000
  O   O82       1.0  0.7931000000000001  0.1538  0.41778000000000004  1.0000
  O   O83       1.0  0.7069  0.6537999999999999  0.08222  1.0000
  O   O84       1.0  0.2931  0.6537999999999999  0.41778000000000004  1.0000
  O   O85       1.0  0.7931000000000001  0.8462000000000002  0.91778  1.0000
  O   O86       1.0  0.2069  0.8462000000000002  0.58222  1.0000
  O   O87       1.0  0.2931  0.3462  0.91778  1.0000
  O   O88       1.0  0.7069  0.3462  0.58222  1.0000
  O   O89       1.0  0.0345  0.0951  0.00058  1.0000
  O   O90       1.0  0.9655000000000001  0.0951  0.49942  1.0000
  O   O91       1.0  0.5345  0.5951  0.00058  1.0000
  O   O92       1.0  0.4655  0.5951  0.49942  1.0000
  O   O93       1.0  0.9655000000000001  0.9049  0.99942  1.0000
  O   O94       1.0  0.0345  0.9049  0.50058  1.0000
  O   O95       1.0  0.4655  0.4049  0.99942  1.0000
  O   O96       1.0  0.5345  0.4049  0.50058  1.0000
  O   O97       1.0  0.4304  0.09130000000000003  0.1661  1.0000
  O   O98       1.0  0.5696  0.09130000000000003  0.3339  1.0000
  O   O99       1.0  0.9304  0.5913  0.1661  1.0000
  O   O100      1.0  0.0696  0.5913  0.3339  1.0000
  O   O101      1.0  0.5696  0.9087  0.8338999999999999  1.0000
  O   O102      1.0  0.4304  0.9087  0.6661  1.0000
  O   O103      1.0  0.0696  0.40869999999999995  0.8338999999999999  1.0000
  O   O104      1.0  0.9304  0.40869999999999995  0.6661  1.0000
  O   O105      1.0  0.2059  0.1611  0.2469  1.0000
  O   O106      1.0  0.7941000000000001  0.1611  0.2531  1.0000
  O   O107      1.0  0.7059  0.6611  0.2469  1.0000
  O   O108      1.0  0.29410000000000003  0.6611  0.2531  1.0000
  O   O109      1.0  0.7941000000000001  0.8389  0.7531  1.0000
  O   O110      1.0  0.2059  0.8389  0.7469  1.0000
  O   O111      1.0  0.29410000000000003  0.3389  0.7531  1.0000
  O   O112      1.0  0.7059  0.3389  0.7469  1.0000
  O   O113      1.0  0.7919  0.1631  0.9173  1.0000
  O   O114      1.0  0.20809999999999998  0.1631  0.5827  1.0000
  O   O115      1.0  0.2919000000000001  0.6631  0.9173  1.0000
  O   O116      1.0  0.7081000000000001  0.6631  0.5827  1.0000
  O   O117      1.0  0.20809999999999998  0.8369  0.0827  1.0000
  O   O118      1.0  0.7919  0.8369  0.41730000000000006  1.0000
  O   O119      1.0  0.7081000000000001  0.3369  0.0827  1.0000
  O   O120      1.0  0.2919000000000001  0.3369  0.41730000000000006  1.0000
  O   O121      1.0  0.45360000000000006  0.0861  0.0022  1.0000
  O   O122      1.0  0.5464  0.0861  0.49779999999999996  1.0000
  O   O123      1.0  0.9536000000000001  0.5861  0.0022  1.0000
  O   O124      1.0  0.04639999999999994  0.5861  0.49779999999999996  1.0000
  O   O125      1.0  0.5464  0.9138999999999999  0.9978  1.0000
  O   O126      1.0  0.45360000000000006  0.9138999999999999  0.5022  1.0000
  O   O127      1.0  0.04639999999999994  0.41390000000000005  0.9978  1.0000
  O   O128      1.0  0.9536000000000001  0.41390000000000005  0.5022  1.0000
  O   O129      1.0  0.7944  0.16250000000000003  0.0817  1.0000
  O   O130      1.0  0.2056  0.16250000000000003  0.41829999999999995  1.0000
  O   O131      1.0  0.29440000000000005  0.6625000000000001  0.0817  1.0000
  O   O132      1.0  0.7056  0.6625000000000001  0.41829999999999995  1.0000
  O   O133      1.0  0.2056  0.8375  0.9183  1.0000
  O   O134      1.0  0.7944  0.8375  0.5817  1.0000
  O   O135      1.0  0.7056  0.33749999999999997  0.9183  1.0000
  O   O136      1.0  0.29440000000000005  0.33749999999999997  0.5817  1.0000
  O   O137      1.0  0.4428  0.0853  0.8357  1.0000
  O   O138      1.0  0.5572  0.0853  0.6643  1.0000
  O   O139      1.0  0.9428000000000001  0.5853  0.8357  1.0000
  O   O140      1.0  0.05719999999999998  0.5853  0.6643  1.0000
  O   O141      1.0  0.5572  0.9147  0.1643  1.0000
  O   O142      1.0  0.4428  0.9147  0.3357000000000001  1.0000
  O   O143      1.0  0.05719999999999998  0.4147  0.1643  1.0000
  O   O144      1.0  0.9428000000000001  0.4147  0.3357000000000001  1.0000
