data_image0
_chemical_formula_structural       P6O2H2O8H2O14N2H8N2H8N2H8N2H8N2H8N2H8N2H8
_chemical_formula_sum              "P6 O24 H60 N14"
_cell_length_a       10.4667
_cell_length_b       6.2976
_cell_length_c       14.072000000000001
_cell_angle_alpha    90.0
_cell_angle_beta     103.73799999999999
_cell_angle_gamma    90.0

_space_group_name_H-M_alt    "P 1"
_space_group_IT_number       1

loop_
  _space_group_symop_operation_xyz
  'x, y, z'

loop_
  _atom_site_type_symbol
  _atom_site_label
  _atom_site_symmetry_multiplicity
  _atom_site_fract_x
  _atom_site_fract_y
  _atom_site_fract_z
  _atom_site_occupancy
  P   P1        1.0  0.06285999999999999  0.7068199999999999  0.69882  1.0000
  P   P2        1.0  0.9371400000000001  0.20681999999999998  0.30118  1.0000
  P   P3        1.0  0.5039199999999999  0.20332  0.6596399999999998  1.0000
  P   P4        1.0  0.49608  0.70332  0.34036000000000005  1.0000
  P   P5        1.0  0.7384999999999998  0.30542  0.9765299999999998  1.0000
  P   P6        1.0  0.2615  0.8054199999999999  0.023470000000000102  1.0000
  O   O1        1.0  0.18638999999999992  0.8277  0.7607399999999999  1.0000
  O   O2        1.0  0.81361  0.3277000000000001  0.23926000000000014  1.0000
  H   H1        1.0  0.189  0.847  0.822  1.0000
  H   H2        1.0  0.8109999999999999  0.3469999999999999  0.17800000000000005  1.0000
  O   O3        1.0  0.93897  0.7967  0.7226399999999997  1.0000
  O   O4        1.0  0.06103000000000006  0.29669999999999996  0.27736000000000016  1.0000
  O   O5        1.0  0.06792999999999992  0.7483  0.5930999999999997  1.0000
  O   O6        1.0  0.9320700000000001  0.24829999999999997  0.40690000000000015  1.0000
  O   O7        1.0  0.07606000000000002  0.4717  0.72402  1.0000
  O   O8        1.0  0.9239399999999999  0.9716999999999999  0.27597999999999995  1.0000
  O   O9        1.0  0.49281999999999987  0.3334  0.7528799999999998  1.0000
  O   O10       1.0  0.5071800000000003  0.8333999999999999  0.24712000000000012  1.0000
  H   H3        1.0  0.548  0.37  0.7899999999999999  1.0000
  H   H4        1.0  0.4519999999999999  0.87  0.21000000000000008  1.0000
  O   O11       1.0  0.3835999999999999  0.2665  0.5796299999999998  1.0000
  O   O12       1.0  0.6164000000000001  0.7664999999999998  0.42037000000000013  1.0000
  O   O13       1.0  0.63168  0.2661  0.63262  1.0000
  O   O14       1.0  0.36832  0.7661  0.36738  1.0000
  O   O15       1.0  0.50188  0.9674  0.68323  1.0000
  O   O16       1.0  0.49812  0.4673999999999999  0.31677  1.0000
  O   O17       1.0  0.68406  0.4504  0.8866  1.0000
  O   O18       1.0  0.31594  0.9504  0.11339999999999993  1.0000
  O   O19       1.0  0.8522499999999998  0.1739  0.95559  1.0000
  O   O20       1.0  0.14775000000000013  0.6738999999999999  0.04440999999999994  1.0000
  O   O21       1.0  0.7906199999999999  0.45139999999999997  0.06459999999999975  1.0000
  O   O22       1.0  0.20938000000000007  0.9514  0.9354000000000001  1.0000
  O   O23       1.0  0.63092  0.1584  0.9959  1.0000
  O   O24       1.0  0.36907999999999996  0.6583999999999999  0.004099999999999992  1.0000
  N   N1        1.0  0.7062999999999999  0.8299  0.1348799999999999  1.0000
  N   N2        1.0  0.29370000000000007  0.32989999999999986  0.8651200000000001  1.0000
  H   H5        1.0  0.646  0.805  0.16799999999999993  1.0000
  H   H6        1.0  0.3539999999999999  0.30500000000000016  0.832  1.0000
  H   H7        1.0  0.716  0.706  0.1060000000000001  1.0000
  H   H8        1.0  0.284  0.20599999999999996  0.8939999999999998  1.0000
  H   H9        1.0  0.678  0.929  0.09200000000000007  1.0000
  H   H10       1.0  0.3219999999999999  0.42900000000000005  0.9079999999999998  1.0000
  H   H11       1.0  0.7769999999999999  0.859  0.18100000000000002  1.0000
  H   H12       1.0  0.2230000000000001  0.359  0.819  1.0000
  N   N3        1.0  0.519  0.8247999999999999  0.8767999999999998  1.0000
  N   N4        1.0  0.481  0.3248  0.12320000000000007  1.0000
  H   H13       1.0  0.456  0.785  0.9039999999999998  1.0000
  H   H14       1.0  0.544  0.28500000000000003  0.09600000000000007  1.0000
  H   H15       1.0  0.48499999999999993  0.835  0.8123999999999999  1.0000
  H   H16       1.0  0.5150000000000001  0.33499999999999996  0.1876000000000001  1.0000
  H   H17       1.0  0.572  0.714  0.882  1.0000
  H   H18       1.0  0.42800000000000005  0.21400000000000002  0.118  1.0000
  H   H19       1.0  0.56  0.9299999999999999  0.914  1.0000
  H   H20       1.0  0.43999999999999995  0.43  0.08599999999999995  1.0000
  N   N5        1.0  0.8791  0.2149  0.76305  1.0000
  N   N6        1.0  0.12089999999999998  0.7149  0.23694999999999997  1.0000
  H   H21       1.0  0.7989999999999999  0.228  0.724  1.0000
  H   H22       1.0  0.20099999999999993  0.728  0.276  1.0000
  H   H23       1.0  0.9279999999999999  0.325  0.753  1.0000
  H   H24       1.0  0.072  0.825  0.24699999999999997  1.0000
  H   H25       1.0  0.8749999999999999  0.211  0.8233999999999998  1.0000
  H   H26       1.0  0.125  0.7109999999999999  0.17660000000000006  1.0000
  H   H27       1.0  0.906  0.091  0.749  1.0000
  H   H28       1.0  0.09399999999999999  0.591  0.251  1.0000
  N   N7        1.0  0.32319999999999993  0.7026  0.5588499999999998  1.0000
  N   N8        1.0  0.6768  0.2026  0.4411500000000001  1.0000
  H   H29       1.0  0.24399999999999997  0.722  0.5629999999999998  1.0000
  H   H30       1.0  0.756  0.22199999999999998  0.4370000000000001  1.0000
  H   H31       1.0  0.346  0.5700000000000001  0.5759999999999998  1.0000
  H   H32       1.0  0.654  0.07  0.4240000000000001  1.0000
  H   H33       1.0  0.323  0.722  0.4968  1.0000
  H   H34       1.0  0.677  0.22199999999999998  0.5031999999999999  1.0000
  H   H35       1.0  0.368  0.7969999999999998  0.597  1.0000
  H   H36       1.0  0.6319999999999999  0.297  0.40299999999999997  1.0000
  N   N9        1.0  0.1203  0.1947  0.57987  1.0000
  N   N10       1.0  0.8796999999999999  0.6947  0.42012999999999995  1.0000
  H   H37       1.0  0.2068  0.196  0.586  1.0000
  H   H38       1.0  0.7932  0.696  0.414  1.0000
  H   H39       1.0  0.10599999999999997  0.065  0.596  1.0000
  H   H40       1.0  0.8939999999999999  0.565  0.404  1.0000
  H   H41       1.0  0.06699999999999999  0.21899999999999997  0.5208  1.0000
  H   H42       1.0  0.933  0.719  0.4791999999999999  1.0000
  H   H43       1.0  0.107  0.282  0.624  1.0000
  H   H44       1.0  0.893  0.7819999999999999  0.376  1.0000
  N   N11       1.0  0.32089999999999996  0.2056  0.3769699999999999  1.0000
  N   N12       1.0  0.6791  0.7056  0.62303  1.0000
  H   H45       1.0  0.23859999999999995  0.23  0.3499999999999999  1.0000
  H   H46       1.0  0.7614  0.7299999999999999  0.6500000000000001  1.0000
  H   H47       1.0  0.33699999999999997  0.218  0.4412999999999999  1.0000
  H   H48       1.0  0.663  0.718  0.5587  1.0000
  H   H49       1.0  0.339  0.073  0.3669999999999999  1.0000
  H   H50       1.0  0.6609999999999999  0.573  0.6329999999999999  1.0000
  H   H51       1.0  0.36099999999999993  0.289  0.345  1.0000
  H   H52       1.0  0.6389999999999999  0.7889999999999998  0.655  1.0000
  N   N13       1.0  0.9065  0.7572  0.91732  1.0000
  N   N14       1.0  0.09350000000000003  0.2572  0.08267999999999998  1.0000
  H   H53       1.0  0.9749999999999999  0.726  0.9651999999999997  1.0000
  H   H54       1.0  0.025000000000000022  0.22599999999999998  0.034800000000000164  1.0000
  H   H55       1.0  0.879  0.8829999999999999  0.9339999999999998  1.0000
  H   H56       1.0  0.121  0.383  0.06600000000000006  1.0000
  H   H57       1.0  0.851  0.663  0.9269999999999998  1.0000
  H   H58       1.0  0.149  0.16299999999999995  0.07300000000000005  1.0000
  H   H59       1.0  0.926  0.759  0.8589999999999999  1.0000
  H   H60       1.0  0.07399999999999994  0.259  0.14100000000000013  1.0000
