data_image0
_chemical_formula_structural       Nd8Os12O38
_chemical_formula_sum              "Nd8 Os12 O38"
_cell_length_a       8.957
_cell_length_b       8.957
_cell_length_c       8.957
_cell_angle_alpha    90.0
_cell_angle_beta     90.0
_cell_angle_gamma    90.0

_space_group_name_H-M_alt    "P 1"
_space_group_IT_number       1

loop_
  _space_group_symop_operation_xyz
  'x, y, z'

loop_
  _atom_site_type_symbol
  _atom_site_label
  _atom_site_symmetry_multiplicity
  _atom_site_fract_x
  _atom_site_fract_y
  _atom_site_fract_z
  _atom_site_occupancy
  Nd  Nd1       1.0  0.15737  0.15737  0.15737  1.0000
  Nd  Nd2       1.0  0.15737  0.8426300000000001  0.8426300000000001  1.0000
  Nd  Nd3       1.0  0.8426300000000001  0.15737  0.8426300000000001  1.0000
  Nd  Nd4       1.0  0.8426300000000001  0.8426300000000001  0.15737  1.0000
  Nd  Nd5       1.0  0.65737  0.65737  0.65737  1.0000
  Nd  Nd6       1.0  0.65737  0.34263  0.34263  1.0000
  Nd  Nd7       1.0  0.34263  0.65737  0.34263  1.0000
  Nd  Nd8       1.0  0.34263  0.34263  0.65737  1.0000
  Os  Os1       1.0  0.36153  0.5  0.0  1.0000
  Os  Os2       1.0  0.5  0.0  0.36153  1.0000
  Os  Os3       1.0  0.0  0.36153  0.5  1.0000
  Os  Os4       1.0  0.5  0.0  0.63847  1.0000
  Os  Os5       1.0  0.0  0.63847  0.5  1.0000
  Os  Os6       1.0  0.63847  0.5  0.0  1.0000
  Os  Os7       1.0  0.86153  0.0  0.5  1.0000
  Os  Os8       1.0  0.0  0.5  0.86153  1.0000
  Os  Os9       1.0  0.5  0.86153  0.0  1.0000
  Os  Os10      1.0  0.0  0.5  0.13846999999999998  1.0000
  Os  Os11      1.0  0.5  0.13846999999999998  0.0  1.0000
  Os  Os12      1.0  0.13846999999999998  0.0  0.5  1.0000
  O   O1        1.0  0.3228  0.0  0.0  1.0000
  O   O2        1.0  0.0  0.0  0.3228  1.0000
  O   O3        1.0  0.0  0.3228  0.0  1.0000
  O   O4        1.0  0.0  0.0  0.6772  1.0000
  O   O5        1.0  0.0  0.6772  0.0  1.0000
  O   O6        1.0  0.6772  0.0  0.0  1.0000
  O   O7        1.0  0.8228  0.5  0.5  1.0000
  O   O8        1.0  0.5  0.5  0.8228  1.0000
  O   O9        1.0  0.5  0.8228  0.5  1.0000
  O   O10       1.0  0.5  0.5  0.17720000000000002  1.0000
  O   O11       1.0  0.5  0.17720000000000002  0.5  1.0000
  O   O12       1.0  0.17720000000000002  0.5  0.5  1.0000
  O   O13       1.0  0.0  0.0  0.0  1.0000
  O   O14       1.0  0.5  0.5  0.5  1.0000
  O   O15       1.0  0.3408  0.28379  0.97853  1.0000
  O   O16       1.0  0.28379  0.97853  0.3408  1.0000
  O   O17       1.0  0.97853  0.3408  0.28379  1.0000
  O   O18       1.0  0.3408  0.71621  0.02146999999999999  1.0000
  O   O19       1.0  0.28379  0.02146999999999999  0.6592  1.0000
  O   O20       1.0  0.97853  0.6592  0.71621  1.0000
  O   O21       1.0  0.6592  0.28379  0.02146999999999999  1.0000
  O   O22       1.0  0.71621  0.97853  0.6592  1.0000
  O   O23       1.0  0.02146999999999999  0.3408  0.71621  1.0000
  O   O24       1.0  0.6592  0.71621  0.97853  1.0000
  O   O25       1.0  0.71621  0.02146999999999999  0.3408  1.0000
  O   O26       1.0  0.02146999999999999  0.6592  0.28379  1.0000
  O   O27       1.0  0.8408  0.78379  0.4785300000000001  1.0000
  O   O28       1.0  0.78379  0.4785300000000001  0.8408  1.0000
  O   O29       1.0  0.4785300000000001  0.8408  0.78379  1.0000
  O   O30       1.0  0.8408  0.21621  0.52147  1.0000
  O   O31       1.0  0.78379  0.52147  0.1592  1.0000
  O   O32       1.0  0.4785300000000001  0.1592  0.21621  1.0000
  O   O33       1.0  0.1592  0.78379  0.52147  1.0000
  O   O34       1.0  0.21621  0.4785300000000001  0.1592  1.0000
  O   O35       1.0  0.52147  0.8408  0.21621  1.0000
  O   O36       1.0  0.1592  0.21621  0.4785300000000001  1.0000
  O   O37       1.0  0.21621  0.52147  0.8408  1.0000
  O   O38       1.0  0.52147  0.1592  0.78379  1.0000
