data_image0
_chemical_formula_structural       Ga12Zn8P20O80
_chemical_formula_sum              "Ga12 Zn8 P20 O80"
_cell_length_a       16.767
_cell_length_b       19.047
_cell_length_c       10.248000000000001
_cell_angle_alpha    90.0
_cell_angle_beta     127.03799999999997
_cell_angle_gamma    90.0

_space_group_name_H-M_alt    "P 1"
_space_group_IT_number       1

loop_
  _space_group_symop_operation_xyz
  'x, y, z'

loop_
  _atom_site_type_symbol
  _atom_site_label
  _atom_site_symmetry_multiplicity
  _atom_site_fract_x
  _atom_site_fract_y
  _atom_site_fract_z
  _atom_site_occupancy
  Ga  Ga1       1.0  0.1082700000000001  0.5  0.25782  1.0000
  Ga  Ga2       1.0  0.8917299999999999  0.5  0.7421800000000001  1.0000
  Ga  Ga3       1.0  0.6082700000000001  0.0  0.25782  1.0000
  Ga  Ga4       1.0  0.39172999999999986  0.0  0.7421800000000001  1.0000
  Ga  Ga5       1.0  0.7875  0.35244  0.93543  0.7300
  Ga  Ga6       1.0  0.21250000000000002  0.35244  0.06457  0.7300
  Ga  Ga7       1.0  0.2875000000000001  0.85244  0.93543  0.7300
  Ga  Ga8       1.0  0.7125  0.85244  0.06457  0.7300
  Ga  Ga9       1.0  0.21250000000000002  0.64756  0.06457  0.7300
  Ga  Ga10      1.0  0.7875  0.64756  0.93543  0.7300
  Ga  Ga11      1.0  0.7125  0.14756000000000005  0.06457  0.7300
  Ga  Ga12      1.0  0.2875000000000001  0.14756000000000005  0.93543  0.7300
  Zn  Zn1       1.0  0.12278999999999994  0.20862  0.26158  0.5600
  Zn  Zn2       1.0  0.87721  0.20862  0.7384200000000001  0.5600
  Zn  Zn3       1.0  0.6227899999999998  0.70862  0.26158  0.5600
  Zn  Zn4       1.0  0.37721000000000005  0.70862  0.7384200000000001  0.5600
  Zn  Zn5       1.0  0.87721  0.79138  0.7384200000000001  0.5600
  Zn  Zn6       1.0  0.12278999999999994  0.79138  0.26158  0.5600
  Zn  Zn7       1.0  0.37721000000000005  0.29138  0.7384200000000001  0.5600
  Zn  Zn8       1.0  0.6227899999999998  0.29138  0.26158  0.5600
  P   P1        1.0  0.88021  0.5  0.0488  1.0000
  P   P2        1.0  0.11978999999999995  0.5  0.9512  1.0000
  P   P3        1.0  0.38020999999999994  0.0  0.0488  1.0000
  P   P4        1.0  0.61979  0.0  0.9512  1.0000
  P   P5        1.0  0.21895  0.35762000000000005  0.38599  1.0000
  P   P6        1.0  0.78105  0.35762000000000005  0.61401  1.0000
  P   P7        1.0  0.71895  0.85762  0.38599  1.0000
  P   P8        1.0  0.28104999999999997  0.85762  0.61401  1.0000
  P   P9        1.0  0.78105  0.64238  0.61401  1.0000
  P   P10       1.0  0.21895  0.64238  0.38599  1.0000
  P   P11       1.0  0.28104999999999997  0.14237999999999995  0.61401  1.0000
  P   P12       1.0  0.71895  0.14237999999999995  0.38599  1.0000
  P   P13       1.0  0.88408  0.20664  0.04366  1.0000
  P   P14       1.0  0.11592000000000002  0.20664  0.95634  1.0000
  P   P15       1.0  0.38408  0.7066399999999999  0.04366  1.0000
  P   P16       1.0  0.61592  0.7066399999999999  0.95634  1.0000
  P   P17       1.0  0.11592000000000002  0.7933600000000001  0.95634  1.0000
  P   P18       1.0  0.88408  0.7933600000000001  0.04366  1.0000
  P   P19       1.0  0.61592  0.29336  0.95634  1.0000
  P   P20       1.0  0.38408  0.29336  0.04366  1.0000
  O   O1        1.0  0.9841000000000001  0.5  0.2018  1.0000
  O   O2        1.0  0.015899999999999925  0.5  0.7982  1.0000
  O   O3        1.0  0.48410000000000014  0.0  0.2018  1.0000
  O   O4        1.0  0.5158999999999999  0.0  0.7982  1.0000
  O   O5        1.0  0.17470000000000005  0.42630000000000007  0.3876  1.0000
  O   O6        1.0  0.8252999999999999  0.42630000000000007  0.6124  1.0000
  O   O7        1.0  0.6747  0.9263000000000001  0.3876  1.0000
  O   O8        1.0  0.32529999999999987  0.9263000000000001  0.6124  1.0000
  O   O9        1.0  0.8252999999999999  0.5736999999999999  0.6124  1.0000
  O   O10       1.0  0.17470000000000005  0.5736999999999999  0.3876  1.0000
  O   O11       1.0  0.32529999999999987  0.07369999999999995  0.6124  1.0000
  O   O12       1.0  0.6747  0.07369999999999995  0.3876  1.0000
  O   O13       1.0  0.8781  0.5  0.9016  1.0000
  O   O14       1.0  0.12190000000000001  0.5  0.0984  1.0000
  O   O15       1.0  0.3780999999999999  0.0  0.9016  1.0000
  O   O16       1.0  0.6218999999999999  0.0  0.0984  1.0000
  O   O17       1.0  0.8827  0.2855  0.0647  1.0000
  O   O18       1.0  0.11729999999999995  0.2855  0.9353  1.0000
  O   O19       1.0  0.3827  0.7855000000000001  0.0647  1.0000
  O   O20       1.0  0.6172999999999998  0.7855000000000001  0.9353  1.0000
  O   O21       1.0  0.11729999999999995  0.7145  0.9353  1.0000
  O   O22       1.0  0.8827  0.7145  0.0647  1.0000
  O   O23       1.0  0.6172999999999998  0.21450000000000005  0.9353  1.0000
  O   O24       1.0  0.3827  0.21450000000000005  0.0647  1.0000
  O   O25       1.0  0.9916  0.1811  0.1481  1.0000
  O   O26       1.0  0.008399999999999982  0.1811  0.8519  1.0000
  O   O27       1.0  0.4916  0.6811  0.1481  1.0000
  O   O28       1.0  0.5084  0.6811  0.8519  1.0000
  O   O29       1.0  0.008399999999999982  0.8189  0.8519  1.0000
  O   O30       1.0  0.9916  0.8189  0.1481  1.0000
  O   O31       1.0  0.5084  0.31889999999999996  0.8519  1.0000
  O   O32       1.0  0.4916  0.31889999999999996  0.1481  1.0000
  O   O33       1.0  0.8325  0.1899  0.8634  1.0000
  O   O34       1.0  0.16749999999999998  0.1899  0.1366  1.0000
  O   O35       1.0  0.3325  0.6899  0.8634  1.0000
  O   O36       1.0  0.6674999999999999  0.6899  0.1366  1.0000
  O   O37       1.0  0.16749999999999998  0.8101  0.1366  1.0000
  O   O38       1.0  0.8325  0.8101  0.8634  1.0000
  O   O39       1.0  0.6674999999999999  0.3101  0.1366  1.0000
  O   O40       1.0  0.3325  0.3101  0.8634  1.0000
  O   O41       1.0  0.2519  0.3612  0.2774  1.0000
  O   O42       1.0  0.7480999999999999  0.3612  0.7226  1.0000
  O   O43       1.0  0.7518999999999999  0.8612  0.2774  1.0000
  O   O44       1.0  0.24809999999999996  0.8612  0.7226  1.0000
  O   O45       1.0  0.7480999999999999  0.6388  0.7226  1.0000
  O   O46       1.0  0.2519  0.6388  0.2774  1.0000
  O   O47       1.0  0.24809999999999996  0.13879999999999998  0.7226  1.0000
  O   O48       1.0  0.7518999999999999  0.13879999999999998  0.2774  1.0000
  O   O49       1.0  0.6681  0.3313  0.9003  1.0000
  O   O50       1.0  0.3319  0.3313  0.0997  1.0000
  O   O51       1.0  0.16809999999999994  0.8313  0.9003  1.0000
  O   O52       1.0  0.8319  0.8313  0.0997  1.0000
  O   O53       1.0  0.3319  0.6687000000000001  0.0997  1.0000
  O   O54       1.0  0.6681  0.6687000000000001  0.9003  1.0000
  O   O55       1.0  0.8319  0.16870000000000002  0.0997  1.0000
  O   O56       1.0  0.16809999999999994  0.16870000000000002  0.9003  1.0000
  O   O57       1.0  0.8277  0.4365  0.0517  1.0000
  O   O58       1.0  0.1723  0.4365  0.9483  1.0000
  O   O59       1.0  0.32770000000000005  0.9365000000000001  0.0517  1.0000
  O   O60       1.0  0.6722999999999999  0.9365000000000001  0.9483  1.0000
  O   O61       1.0  0.1723  0.5635  0.9483  1.0000
  O   O62       1.0  0.8277  0.5635  0.0517  1.0000
  O   O63       1.0  0.6722999999999999  0.0635  0.9483  1.0000
  O   O64       1.0  0.32770000000000005  0.0635  0.0517  1.0000
  O   O65       1.0  0.14579999999999993  0.2997  0.3385  1.0000
  O   O66       1.0  0.8542000000000001  0.2997  0.6615  1.0000
  O   O67       1.0  0.6457999999999998  0.7997000000000001  0.3385  1.0000
  O   O68       1.0  0.35420000000000007  0.7997000000000001  0.6615  1.0000
  O   O69       1.0  0.8542000000000001  0.7002999999999999  0.6615  1.0000
  O   O70       1.0  0.14579999999999993  0.7002999999999999  0.3385  1.0000
  O   O71       1.0  0.35420000000000007  0.20029999999999998  0.6615  1.0000
  O   O72       1.0  0.6457999999999998  0.20029999999999998  0.3385  1.0000
  O   O73       1.0  0.3112999999999999  0.349  0.5609  1.0000
  O   O74       1.0  0.6887  0.349  0.43910000000000005  1.0000
  O   O75       1.0  0.8112999999999999  0.849  0.5609  1.0000
  O   O76       1.0  0.1887000000000001  0.849  0.43910000000000005  1.0000
  O   O77       1.0  0.6887  0.651  0.43910000000000005  1.0000
  O   O78       1.0  0.3112999999999999  0.651  0.5609  1.0000
  O   O79       1.0  0.1887000000000001  0.15100000000000002  0.43910000000000005  1.0000
  O   O80       1.0  0.8112999999999999  0.15100000000000002  0.5609  1.0000
  Zn  Zn9       1.0  0.7875  0.35244  0.93543  0.2700
  Zn  Zn10      1.0  0.21250000000000002  0.35244  0.06457  0.2700
  Zn  Zn11      1.0  0.2875000000000001  0.85244  0.93543  0.2700
  Zn  Zn12      1.0  0.7125  0.85244  0.06457  0.2700
  Zn  Zn13      1.0  0.21250000000000002  0.64756  0.06457  0.2700
  Zn  Zn14      1.0  0.7875  0.64756  0.93543  0.2700
  Zn  Zn15      1.0  0.7125  0.14756000000000005  0.06457  0.2700
  Zn  Zn16      1.0  0.2875000000000001  0.14756000000000005  0.93543  0.2700
  Ga  Ga13      1.0  0.12278999999999994  0.20862  0.26158  0.4400
  Ga  Ga14      1.0  0.87721  0.20862  0.7384200000000001  0.4400
  Ga  Ga15      1.0  0.6227899999999998  0.70862  0.26158  0.4400
  Ga  Ga16      1.0  0.37721000000000005  0.70862  0.7384200000000001  0.4400
  Ga  Ga17      1.0  0.87721  0.79138  0.7384200000000001  0.4400
  Ga  Ga18      1.0  0.12278999999999994  0.79138  0.26158  0.4400
  Ga  Ga19      1.0  0.37721000000000005  0.29138  0.7384200000000001  0.4400
  Ga  Ga20      1.0  0.6227899999999998  0.29138  0.26158  0.4400
