data_image0
_chemical_formula_structural       Ba8Fe4I10S8
_chemical_formula_sum              "Ba8 Fe4 I10 S8"
_cell_length_a       13.7583
_cell_length_b       13.7583
_cell_length_c       5.1261
_cell_angle_alpha    90.0
_cell_angle_beta     90.0
_cell_angle_gamma    90.0

_space_group_name_H-M_alt    "P 1"
_space_group_IT_number       1

loop_
  _space_group_symop_operation_xyz
  'x, y, z'

loop_
  _atom_site_type_symbol
  _atom_site_label
  _atom_site_symmetry_multiplicity
  _atom_site_fract_x
  _atom_site_fract_y
  _atom_site_fract_z
  _atom_site_occupancy
  Ba  Ba1       1.0  0.24800999999999995  0.06078999999999999  0.0  1.0000
  Ba  Ba2       1.0  0.7519899999999999  0.9392099999999999  0.0  1.0000
  Ba  Ba3       1.0  0.9392099999999999  0.24800999999999995  0.0  1.0000
  Ba  Ba4       1.0  0.06078999999999999  0.7519899999999999  0.0  1.0000
  Ba  Ba5       1.0  0.7480099999999998  0.56079  0.49999999999999994  1.0000
  Ba  Ba6       1.0  0.25199000000000005  0.43920999999999993  0.49999999999999994  1.0000
  Ba  Ba7       1.0  0.43920999999999993  0.7480099999999998  0.49999999999999994  1.0000
  Ba  Ba8       1.0  0.56079  0.25199000000000005  0.49999999999999994  1.0000
  Fe  Fe1       1.0  0.0  0.4999999999999999  0.24999999999999994  1.0000
  Fe  Fe2       1.0  0.49999999999999994  0.0  0.24999999999999994  1.0000
  Fe  Fe3       1.0  0.49999999999999994  0.0  0.7499999999999999  1.0000
  Fe  Fe4       1.0  5.551115123125782e-17  0.49999999999999994  0.7499999999999999  1.0000
  I   I1        1.0  0.0  0.0  0.0  1.0000
  I   I2        1.0  0.49999999999999994  0.49999999999999994  0.49999999999999994  1.0000
  I   I3        1.0  0.3692899999999999  0.2970599999999999  0.0  1.0000
  I   I4        1.0  0.63071  0.7029400000000001  0.0  1.0000
  I   I5        1.0  0.7029400000000001  0.3692899999999999  0.0  1.0000
  I   I6        1.0  0.2970599999999999  0.63071  0.0  1.0000
  I   I7        1.0  0.8692899999999998  0.7970599999999999  0.49999999999999994  1.0000
  I   I8        1.0  0.13071000000000005  0.20294000000000004  0.49999999999999994  1.0000
  I   I9        1.0  0.20294000000000004  0.8692899999999998  0.49999999999999994  1.0000
  I   I10       1.0  0.7970599999999999  0.13071000000000005  0.49999999999999994  1.0000
  S   S1        1.0  0.1036  0.412  0.0  1.0000
  S   S2        1.0  0.8963999999999999  0.5880000000000001  0.0  1.0000
  S   S3        1.0  0.5880000000000001  0.1036  0.0  1.0000
  S   S4        1.0  0.412  0.8963999999999999  0.0  1.0000
  S   S5        1.0  0.6036  0.9119999999999998  0.49999999999999994  1.0000
  S   S6        1.0  0.3964  0.08800000000000001  0.49999999999999994  1.0000
  S   S7        1.0  0.08800000000000001  0.6036  0.49999999999999994  1.0000
  S   S8        1.0  0.9119999999999998  0.3964  0.49999999999999994  1.0000
