data_image0
_chemical_formula_structural       Ba2Ge8O18
_chemical_formula_sum              "Ba2 Ge8 O18"
_cell_length_a       6.667
_cell_length_b       6.667
_cell_length_c       9.703
_cell_angle_alpha    90.0
_cell_angle_beta     90.0
_cell_angle_gamma    119.99999999999999

_space_group_name_H-M_alt    "P 1"
_space_group_IT_number       1

loop_
  _space_group_symop_operation_xyz
  'x, y, z'

loop_
  _atom_site_type_symbol
  _atom_site_label
  _atom_site_symmetry_multiplicity
  _atom_site_fract_x
  _atom_site_fract_y
  _atom_site_fract_z
  _atom_site_occupancy
  Ba  Ba1       1.0  0.6666999999999997  0.3333  0.0  1.0000
  Ba  Ba2       1.0  0.6666999999999997  0.3333  0.5  1.0000
  Ge  Ge1       1.0  0.09929999999999999  0.3105  0.25  0.5000
  Ge  Ge2       1.0  0.6894999999999999  0.7887999999999998  0.25  0.5000
  Ge  Ge3       1.0  0.21119999999999997  0.9007000000000001  0.25  0.5000
  Ge  Ge4       1.0  0.6894999999999999  0.9007000000000001  0.75  0.5000
  Ge  Ge5       1.0  0.21119999999999997  0.3105  0.75  0.5000
  Ge  Ge6       1.0  0.09929999999999992  0.7887999999999998  0.75  0.5000
  Ge  Ge7       1.0  0.3332999999999999  0.6667  0.0  1.0000
  Ge  Ge8       1.0  0.3332999999999999  0.6667  0.5  1.0000
  O   O1        1.0  0.23399999999999996  0.1882  0.25  1.0000
  O   O2        1.0  0.8117999999999999  0.04579999999999998  0.25  1.0000
  O   O3        1.0  0.9542  0.766  0.25  1.0000
  O   O4        1.0  0.8117999999999999  0.766  0.75  1.0000
  O   O5        1.0  0.9542  0.1882  0.75  1.0000
  O   O6        1.0  0.23399999999999996  0.04579999999999998  0.75  1.0000
  O   O7        1.0  0.11289999999999997  0.4585  0.12029999999999999  1.0000
  O   O8        1.0  0.5415  0.6544  0.12029999999999999  1.0000
  O   O9        1.0  0.34559999999999996  0.8871  0.12029999999999999  1.0000
  O   O10       1.0  0.11289999999999997  0.4585  0.3797  1.0000
  O   O11       1.0  0.5415  0.6544  0.3797  1.0000
  O   O12       1.0  0.34559999999999996  0.8871  0.3797  1.0000
  O   O13       1.0  0.5415  0.8871  0.6202999999999999  1.0000
  O   O14       1.0  0.34559999999999996  0.4585  0.6202999999999999  1.0000
  O   O15       1.0  0.11289999999999996  0.6544  0.6202999999999999  1.0000
  O   O16       1.0  0.5415  0.8871  0.8796999999999999  1.0000
  O   O17       1.0  0.34559999999999996  0.4585  0.8796999999999999  1.0000
  O   O18       1.0  0.11289999999999996  0.6544  0.8796999999999999  1.0000
  Si  Si1       1.0  0.09929999999999999  0.3105  0.25  0.5000
  Si  Si2       1.0  0.6894999999999999  0.7887999999999998  0.25  0.5000
  Si  Si3       1.0  0.21119999999999997  0.9007000000000001  0.25  0.5000
  Si  Si4       1.0  0.6894999999999999  0.9007000000000001  0.75  0.5000
  Si  Si5       1.0  0.21119999999999997  0.3105  0.75  0.5000
  Si  Si6       1.0  0.09929999999999992  0.7887999999999998  0.75  0.5000
