data_image0
_chemical_formula_structural       K4S2O16
_chemical_formula_sum              "K4 S2 O16"
_cell_length_a       5.947
_cell_length_b       5.947
_cell_length_c       8.375
_cell_angle_alpha    90.0
_cell_angle_beta     90.0
_cell_angle_gamma    119.99999999999999

_space_group_name_H-M_alt    "P 1"
_space_group_IT_number       1

loop_
  _space_group_symop_operation_xyz
  'x, y, z'

loop_
  _atom_site_type_symbol
  _atom_site_label
  _atom_site_symmetry_multiplicity
  _atom_site_fract_x
  _atom_site_fract_y
  _atom_site_fract_z
  _atom_site_occupancy
  K   K1        1.0  0.0  0.0  0.0  1.0000
  K   K2        1.0  0.0  0.0  0.5  1.0000
  K   K3        1.0  0.6667  0.3333  0.25  1.0000
  K   K4        1.0  0.33330000000000004  0.6667000000000001  0.75  1.0000
  S   S1        1.0  0.33330000000000004  0.6667000000000001  0.25  1.0000
  S   S2        1.0  0.6667  0.3333  0.75  1.0000
  O   O1        1.0  0.33330000000000004  0.6667000000000001  0.41  1.0000
  O   O2        1.0  0.6667  0.3333  0.5900000000000001  1.0000
  O   O3        1.0  0.6667  0.3333  0.9099999999999998  1.0000
  O   O4        1.0  0.33330000000000004  0.6667000000000001  0.09000000000000002  1.0000
  O   O5        1.0  0.21200000000000013  0.7880000000000001  0.188  0.3330
  O   O6        1.0  0.21200000000000008  0.4240000000000001  0.188  0.3330
  O   O7        1.0  0.5760000000000001  0.7880000000000001  0.188  0.3330
  O   O8        1.0  0.788  0.21200000000000005  0.812  0.3330
  O   O9        1.0  0.788  0.576  0.812  0.3330
  O   O10       1.0  0.4240000000000001  0.21200000000000005  0.812  0.3330
  O   O11       1.0  0.788  0.21200000000000005  0.688  0.3330
  O   O12       1.0  0.788  0.576  0.688  0.3330
  O   O13       1.0  0.4240000000000001  0.21200000000000005  0.688  0.3330
  O   O14       1.0  0.21200000000000013  0.7880000000000001  0.312  0.3330
  O   O15       1.0  0.21200000000000008  0.4240000000000001  0.312  0.3330
  O   O16       1.0  0.5760000000000001  0.7880000000000001  0.312  0.3330
