data_image0
_chemical_formula_structural       K2Ti6P12Si4O50
_chemical_formula_sum              "K2 Ti6 P12 Si4 O50"
_cell_length_a       8.2648
_cell_length_b       8.264799999999997
_cell_length_c       17.03799
_cell_angle_alpha    90.0
_cell_angle_beta     90.0
_cell_angle_gamma    119.99999999999999

_space_group_name_H-M_alt    "P 1"
_space_group_IT_number       1

loop_
  _space_group_symop_operation_xyz
  'x, y, z'

loop_
  _atom_site_type_symbol
  _atom_site_label
  _atom_site_symmetry_multiplicity
  _atom_site_fract_x
  _atom_site_fract_y
  _atom_site_fract_z
  _atom_site_occupancy
  K   K1        1.0  0.3333  0.6667  0.25  1.0000
  K   K2        1.0  0.6667  0.3333  0.75  1.0000
  Ti  Ti1       1.0  0.3333  0.6667  0.02516  1.0000
  Ti  Ti2       1.0  0.6667  0.3333  0.52516  1.0000
  Ti  Ti3       1.0  0.6667000000000001  0.33330000000000004  0.9748399999999999  1.0000
  Ti  Ti4       1.0  0.33330000000000004  0.6667000000000001  0.47484  1.0000
  Ti  Ti5       1.0  0.6667  0.3333  0.25  1.0000
  Ti  Ti6       1.0  0.3333  0.6667  0.75  1.0000
  P   P1        1.0  0.3825500000000001  0.3315  0.11022  1.0000
  P   P2        1.0  0.6685000000000001  0.05105000000000004  0.11022  1.0000
  P   P3        1.0  0.94895  0.6174499999999999  0.11022  1.0000
  P   P4        1.0  0.3315  0.38255000000000006  0.61022  1.0000
  P   P5        1.0  0.6174499999999999  0.94895  0.61022  1.0000
  P   P6        1.0  0.051050000000000054  0.6685  0.61022  1.0000
  P   P7        1.0  0.6174499999999999  0.6685  0.88978  1.0000
  P   P8        1.0  0.3315  0.94895  0.88978  1.0000
  P   P9        1.0  0.05105000000000005  0.38255000000000006  0.88978  1.0000
  P   P10       1.0  0.6685000000000001  0.6174499999999999  0.38978  1.0000
  P   P11       1.0  0.3825500000000001  0.05105000000000004  0.38978  1.0000
  P   P12       1.0  0.94895  0.3315  0.38978  1.0000
  Si  Si1       1.0  0.0  0.0  0.09281  1.0000
  Si  Si2       1.0  0.0  0.0  0.59281  1.0000
  Si  Si3       1.0  0.0  0.0  0.9071899999999999  1.0000
  Si  Si4       1.0  0.0  0.0  0.40719  1.0000
  O   O1        1.0  0.11900000000000004  0.5991  0.09529999999999998  1.0000
  O   O2        1.0  0.40090000000000003  0.5199  0.09529999999999998  1.0000
  O   O3        1.0  0.48009999999999997  0.881  0.09529999999999998  1.0000
  O   O4        1.0  0.5991  0.11900000000000001  0.5952999999999998  1.0000
  O   O5        1.0  0.881  0.48009999999999997  0.5952999999999998  1.0000
  O   O6        1.0  0.5199  0.40090000000000003  0.5952999999999998  1.0000
  O   O7        1.0  0.881  0.40090000000000003  0.9047000000000001  1.0000
  O   O8        1.0  0.5991  0.48009999999999997  0.9047000000000001  1.0000
  O   O9        1.0  0.5199  0.11900000000000001  0.9047000000000001  1.0000
  O   O10       1.0  0.40090000000000003  0.881  0.40469999999999995  1.0000
  O   O11       1.0  0.11900000000000002  0.5199  0.40469999999999995  1.0000
  O   O12       1.0  0.48009999999999997  0.5991  0.40469999999999995  1.0000
  O   O13       1.0  0.8132  0.2566  0.4575999999999999  1.0000
  O   O14       1.0  0.7434000000000001  0.5566  0.4575999999999999  1.0000
  O   O15       1.0  0.4434  0.18679999999999997  0.4575999999999999  1.0000
  O   O16       1.0  0.2566  0.8132  0.9575999999999999  1.0000
  O   O17       1.0  0.18679999999999997  0.4434  0.9575999999999999  1.0000
  O   O18       1.0  0.5566  0.7434000000000001  0.9575999999999999  1.0000
  O   O19       1.0  0.18679999999999997  0.7434000000000001  0.5424  1.0000
  O   O20       1.0  0.2566  0.4434  0.5424  1.0000
  O   O21       1.0  0.5566  0.8132  0.5424  1.0000
  O   O22       1.0  0.7434000000000001  0.18679999999999997  0.04240000000000004  1.0000
  O   O23       1.0  0.8132  0.5566  0.04240000000000004  1.0000
  O   O24       1.0  0.4434  0.2566  0.04240000000000004  1.0000
  O   O25       1.0  0.4784  0.3386  0.1865  1.0000
  O   O26       1.0  0.6614  0.13979999999999998  0.1865  1.0000
  O   O27       1.0  0.8602000000000001  0.5216000000000001  0.1865  1.0000
  O   O28       1.0  0.3386  0.4784  0.6864999999999999  1.0000
  O   O29       1.0  0.5216000000000001  0.8602000000000001  0.6864999999999999  1.0000
  O   O30       1.0  0.13979999999999998  0.6614  0.6864999999999999  1.0000
  O   O31       1.0  0.5216000000000001  0.6614  0.8135  1.0000
  O   O32       1.0  0.3386  0.8602000000000001  0.8135  1.0000
  O   O33       1.0  0.13979999999999998  0.4784  0.8135  1.0000
  O   O34       1.0  0.6614  0.5216000000000001  0.3135  1.0000
  O   O35       1.0  0.4784  0.13979999999999998  0.3135  1.0000
  O   O36       1.0  0.8602000000000001  0.3386  0.3135  1.0000
  O   O37       1.0  0.0  0.0  0.0  1.0000
  O   O38       1.0  0.0  0.0  0.5  1.0000
  O   O39       1.0  0.023500000000000004  0.831  0.1264  1.0000
  O   O40       1.0  0.16900000000000004  0.19250000000000003  0.1264  1.0000
  O   O41       1.0  0.8075  0.9765  0.1264  1.0000
  O   O42       1.0  0.831  0.023500000000000004  0.6264000000000001  1.0000
  O   O43       1.0  0.9764999999999999  0.8075  0.6264000000000001  1.0000
  O   O44       1.0  0.1925  0.16900000000000004  0.6264000000000001  1.0000
  O   O45       1.0  0.9764999999999999  0.16900000000000004  0.8735999999999999  1.0000
  O   O46       1.0  0.831  0.8075  0.8735999999999999  1.0000
  O   O47       1.0  0.1925  0.023500000000000004  0.8735999999999999  1.0000
  O   O48       1.0  0.16900000000000004  0.9765  0.3736  1.0000
  O   O49       1.0  0.02350000000000002  0.19250000000000003  0.3736  1.0000
  O   O50       1.0  0.8075  0.831  0.3736  1.0000
