data_image0
_chemical_formula_structural       Sb4Ta4O16
_chemical_formula_sum              "Sb4 Ta4 O16"
_cell_length_a       4.916
_cell_length_b       5.542
_cell_length_c       11.78
_cell_angle_alpha    90.0
_cell_angle_beta     90.0
_cell_angle_gamma    90.0

_space_group_name_H-M_alt    "P 1"
_space_group_IT_number       1

loop_
  _space_group_symop_operation_xyz
  'x, y, z'

loop_
  _atom_site_type_symbol
  _atom_site_label
  _atom_site_symmetry_multiplicity
  _atom_site_fract_x
  _atom_site_fract_y
  _atom_site_fract_z
  _atom_site_occupancy
  Sb  Sb1       1.0  0.96  0.0  0.0  1.0000
  Sb  Sb2       1.0  0.04  0.0  0.5  1.0000
  Sb  Sb3       1.0  0.54  0.49999999999999994  0.5  1.0000
  Sb  Sb4       1.0  0.46  0.49999999999999994  0.0  1.0000
  Ta  Ta1       1.0  0.0  0.37499999999999994  0.25  1.0000
  Ta  Ta2       1.0  0.0  0.625  0.75  1.0000
  Ta  Ta3       1.0  0.5  0.8749999999999999  0.75  1.0000
  Ta  Ta4       1.0  0.5  0.12500000000000006  0.25  1.0000
  O   O1        1.0  0.16  0.32999999999999996  0.09  1.0000
  O   O2        1.0  0.8399999999999999  0.67  0.59  1.0000
  O   O3        1.0  0.33999999999999997  0.8299999999999998  0.59  1.0000
  O   O4        1.0  0.66  0.17000000000000004  0.09  1.0000
  O   O5        1.0  0.75  0.12  0.17000000000000004  1.0000
  O   O6        1.0  0.25  0.8799999999999999  0.67  1.0000
  O   O7        1.0  0.75  0.6199999999999999  0.67  1.0000
  O   O8        1.0  0.25  0.38  0.17000000000000004  1.0000
  O   O9        1.0  0.25  0.12  0.33  1.0000
  O   O10       1.0  0.75  0.8799999999999999  0.8300000000000001  1.0000
  O   O11       1.0  0.25  0.6199999999999999  0.8300000000000001  1.0000
  O   O12       1.0  0.75  0.38  0.33  1.0000
  O   O13       1.0  0.8399999999999999  0.32999999999999996  0.4100000000000001  1.0000
  O   O14       1.0  0.16000000000000014  0.67  0.91  1.0000
  O   O15       1.0  0.6600000000000001  0.8299999999999998  0.91  1.0000
  O   O16       1.0  0.33999999999999986  0.17000000000000004  0.4100000000000001  1.0000
