data_image0
_chemical_formula_structural       Bi32Ti16
_chemical_formula_sum              "Bi32 Ti16"
_cell_length_a       5.7654
_cell_length_b       10.3155
_cell_length_c       19.4879
_cell_angle_alpha    90.0
_cell_angle_beta     90.0
_cell_angle_gamma    90.0

_space_group_name_H-M_alt    "P 1"
_space_group_IT_number       1

loop_
  _space_group_symop_operation_xyz
  'x, y, z'

loop_
  _atom_site_type_symbol
  _atom_site_label
  _atom_site_symmetry_multiplicity
  _atom_site_fract_x
  _atom_site_fract_y
  _atom_site_fract_z
  _atom_site_occupancy
  Bi  Bi1       1.0  0.125  0.125  0.04614999999999999  1.0000
  Bi  Bi2       1.0  0.625  0.625  0.04614999999999999  1.0000
  Bi  Bi3       1.0  0.625  0.125  0.70385  1.0000
  Bi  Bi4       1.0  0.125  0.625  0.70385  1.0000
  Bi  Bi5       1.0  0.125  0.625  0.54615  1.0000
  Bi  Bi6       1.0  0.625  0.125  0.54615  1.0000
  Bi  Bi7       1.0  0.625  0.625  0.20384999999999998  1.0000
  Bi  Bi8       1.0  0.125  0.125  0.20384999999999998  1.0000
  Bi  Bi9       1.0  0.875  0.875  0.95385  1.0000
  Bi  Bi10      1.0  0.375  0.375  0.95385  1.0000
  Bi  Bi11      1.0  0.375  0.875  0.29614999999999997  1.0000
  Bi  Bi12      1.0  0.875  0.375  0.29614999999999997  1.0000
  Bi  Bi13      1.0  0.875  0.375  0.45385000000000003  1.0000
  Bi  Bi14      1.0  0.375  0.875  0.45385000000000003  1.0000
  Bi  Bi15      1.0  0.375  0.375  0.7961499999999999  1.0000
  Bi  Bi16      1.0  0.875  0.875  0.7961499999999999  1.0000
  Bi  Bi17      1.0  0.125  0.4571  0.125  1.0000
  Bi  Bi18      1.0  0.625  0.29289999999999994  0.125  1.0000
  Bi  Bi19      1.0  0.625  0.4571  0.625  1.0000
  Bi  Bi20      1.0  0.125  0.29289999999999994  0.625  1.0000
  Bi  Bi21      1.0  0.125  0.9571000000000001  0.625  1.0000
  Bi  Bi22      1.0  0.625  0.7928999999999998  0.625  1.0000
  Bi  Bi23      1.0  0.625  0.9571000000000001  0.125  1.0000
  Bi  Bi24      1.0  0.125  0.7928999999999998  0.125  1.0000
  Bi  Bi25      1.0  0.875  0.5428999999999999  0.875  1.0000
  Bi  Bi26      1.0  0.375  0.7071  0.875  1.0000
  Bi  Bi27      1.0  0.375  0.5428999999999999  0.375  1.0000
  Bi  Bi28      1.0  0.875  0.7071  0.375  1.0000
  Bi  Bi29      1.0  0.875  0.042899999999999994  0.375  1.0000
  Bi  Bi30      1.0  0.375  0.20710000000000006  0.375  1.0000
  Bi  Bi31      1.0  0.375  0.042899999999999994  0.875  1.0000
  Bi  Bi32      1.0  0.875  0.20710000000000006  0.875  1.0000
  Ti  Ti1       1.0  0.125  0.125  0.49898  1.0000
  Ti  Ti2       1.0  0.625  0.625  0.49898  1.0000
  Ti  Ti3       1.0  0.625  0.125  0.25102  1.0000
  Ti  Ti4       1.0  0.125  0.625  0.25102  1.0000
  Ti  Ti5       1.0  0.125  0.625  0.99898  1.0000
  Ti  Ti6       1.0  0.625  0.125  0.99898  1.0000
  Ti  Ti7       1.0  0.625  0.625  0.7510199999999999  1.0000
  Ti  Ti8       1.0  0.125  0.125  0.7510199999999999  1.0000
  Ti  Ti9       1.0  0.875  0.875  0.50102  1.0000
  Ti  Ti10      1.0  0.375  0.375  0.50102  1.0000
  Ti  Ti11      1.0  0.375  0.875  0.74898  1.0000
  Ti  Ti12      1.0  0.875  0.375  0.74898  1.0000
  Ti  Ti13      1.0  0.875  0.375  0.0010200000000000207  1.0000
  Ti  Ti14      1.0  0.375  0.875  0.0010200000000000207  1.0000
  Ti  Ti15      1.0  0.375  0.375  0.24897999999999998  1.0000
  Ti  Ti16      1.0  0.875  0.875  0.24897999999999998  1.0000
