data_image0
_chemical_formula_structural       Na4N12C8
_chemical_formula_sum              "Na4 N12 C8"
_cell_length_a       6.5015
_cell_length_b       14.951
_cell_length_c       3.605
_cell_angle_alpha    90.0
_cell_angle_beta     90.0
_cell_angle_gamma    90.0

_space_group_name_H-M_alt    "P 1"
_space_group_IT_number       1

loop_
  _space_group_symop_operation_xyz
  'x, y, z'

loop_
  _atom_site_type_symbol
  _atom_site_label
  _atom_site_symmetry_multiplicity
  _atom_site_fract_x
  _atom_site_fract_y
  _atom_site_fract_z
  _atom_site_occupancy
  Na  Na1       1.0  0.648  0.0867  0.25  1.0000
  Na  Na2       1.0  0.8519999999999999  0.5867000000000001  0.25  1.0000
  Na  Na3       1.0  0.14800000000000013  0.4133  0.7499999999999999  1.0000
  Na  Na4       1.0  0.352  0.9132999999999999  0.7499999999999999  1.0000
  N   N1        1.0  0.268  0.0286  0.25  1.0000
  N   N2        1.0  0.23199999999999996  0.5286  0.25  1.0000
  N   N3        1.0  0.768  0.4714  0.7499999999999999  1.0000
  N   N4        1.0  0.7319999999999999  0.9714  0.7499999999999999  1.0000
  N   N5        1.0  0.007  0.14930000000000002  0.25  1.0000
  N   N6        1.0  0.49299999999999994  0.6493  0.25  1.0000
  N   N7        1.0  0.507  0.3507  0.7499999999999999  1.0000
  N   N8        1.0  0.993  0.8507  0.7499999999999999  1.0000
  N   N9        1.0  0.05699999999999999  0.3076  0.25  1.0000
  N   N10       1.0  0.443  0.8076  0.25  1.0000
  N   N11       1.0  0.5569999999999999  0.19240000000000002  0.7499999999999999  1.0000
  N   N12       1.0  0.943  0.6924  0.7499999999999999  1.0000
  C   C1        1.0  0.134  0.0883  0.25  1.0000
  C   C2        1.0  0.36599999999999994  0.5883  0.25  1.0000
  C   C3        1.0  0.634  0.4117  0.7499999999999999  1.0000
  C   C4        1.0  0.8659999999999999  0.9117  0.7499999999999999  1.0000
  C   C5        1.0  0.05399999999999999  0.2323  0.25  1.0000
  C   C6        1.0  0.446  0.7323  0.25  1.0000
  C   C7        1.0  0.5539999999999999  0.2677  0.7499999999999999  1.0000
  C   C8        1.0  0.9459999999999998  0.7677  0.7499999999999999  1.0000
