data_image0
_chemical_formula_structural       Cs8Sn4As8
_chemical_formula_sum              "Cs8 Sn4 As8"
_cell_length_a       14.657
_cell_length_b       7.733
_cell_length_c       6.953
_cell_angle_alpha    90.0
_cell_angle_beta     90.0
_cell_angle_gamma    90.0

_space_group_name_H-M_alt    "P 1"
_space_group_IT_number       1

loop_
  _space_group_symop_operation_xyz
  'x, y, z'

loop_
  _atom_site_type_symbol
  _atom_site_label
  _atom_site_symmetry_multiplicity
  _atom_site_fract_x
  _atom_site_fract_y
  _atom_site_fract_z
  _atom_site_occupancy
  Cs  Cs1       1.0  0.3529  0.34  0.0  1.0000
  Cs  Cs2       1.0  0.6471  0.6599999999999999  0.0  1.0000
  Cs  Cs3       1.0  0.6471  0.34  0.5  1.0000
  Cs  Cs4       1.0  0.3529  0.6599999999999999  0.5  1.0000
  Cs  Cs5       1.0  0.8528999999999999  0.84  0.5  1.0000
  Cs  Cs6       1.0  0.1471  0.15999999999999995  0.5  1.0000
  Cs  Cs7       1.0  0.1471  0.84  0.0  1.0000
  Cs  Cs8       1.0  0.8528999999999999  0.15999999999999995  0.0  1.0000
  Sn  Sn1       1.0  0.4999999999999999  0.0  0.25  1.0000
  Sn  Sn2       1.0  0.49999999999999994  0.0  0.75  1.0000
  Sn  Sn3       1.0  0.0  0.49999999999999994  0.75  1.0000
  Sn  Sn4       1.0  5.551115123125782e-17  0.49999999999999994  0.25  1.0000
  As  As1       1.0  0.0982  0.3252  0.0  1.0000
  As  As2       1.0  0.9017999999999999  0.6748  0.0  1.0000
  As  As3       1.0  0.9017999999999999  0.3252  0.5  1.0000
  As  As4       1.0  0.0982  0.6748  0.5  1.0000
  As  As5       1.0  0.5982  0.8251999999999998  0.5  1.0000
  As  As6       1.0  0.40179999999999993  0.1748  0.5  1.0000
  As  As7       1.0  0.40179999999999993  0.8251999999999998  0.0  1.0000
  As  As8       1.0  0.5982  0.1748  0.0  1.0000
