data_image0
_chemical_formula_structural       S4N8H8C12H4C8H4C4H4C4H4C4H4C4H4
_chemical_formula_sum              "S4 N8 H32 C36"
_cell_length_a       12.105
_cell_length_b       12.105
_cell_length_c       5.776
_cell_angle_alpha    90.0
_cell_angle_beta     90.0
_cell_angle_gamma    90.0

_space_group_name_H-M_alt    "P 1"
_space_group_IT_number       1

loop_
  _space_group_symop_operation_xyz
  'x, y, z'

loop_
  _atom_site_type_symbol
  _atom_site_label
  _atom_site_symmetry_multiplicity
  _atom_site_fract_x
  _atom_site_fract_y
  _atom_site_fract_z
  _atom_site_occupancy
  S   S1        1.0  0.883  0.76756  0.0424  1.0000
  S   S2        1.0  0.23243999999999998  0.883  0.7924  1.0000
  S   S3        1.0  0.117  0.23243999999999998  0.5424  1.0000
  S   S4        1.0  0.76756  0.117  0.2924  1.0000
  N   N1        1.0  0.012199999999999999  0.7285  0.6967  1.0000
  N   N2        1.0  0.27149999999999996  0.012199999999999999  0.4466999999999999  1.0000
  N   N3        1.0  0.9877999999999999  0.27149999999999996  0.19669999999999987  1.0000
  N   N4        1.0  0.7285  0.9877999999999999  0.9467  1.0000
  N   N5        1.0  0.8786  0.8654  0.6254  1.0000
  N   N6        1.0  0.13460000000000005  0.8786  0.37539999999999996  1.0000
  N   N7        1.0  0.12139999999999997  0.13460000000000005  0.12539999999999996  1.0000
  N   N8        1.0  0.8654  0.12139999999999997  0.8754  1.0000
  H   H1        1.0  0.9000999999999999  0.8754999999999998  0.4851  1.0000
  H   H2        1.0  0.12450000000000017  0.9000999999999999  0.23510000000000011  1.0000
  H   H3        1.0  0.0999  0.12450000000000017  0.9851  1.0000
  H   H4        1.0  0.8754999999999998  0.0999  0.7351  1.0000
  H   H5        1.0  0.8243999999999999  0.9032  0.6798  1.0000
  H   H6        1.0  0.0968  0.8243999999999999  0.4298  1.0000
  H   H7        1.0  0.1756  0.0968  0.1798  1.0000
  H   H8        1.0  0.9032  0.1756  0.9298  1.0000
  C   C1        1.0  0.9298  0.7902  0.7598000000000001  1.0000
  C   C2        1.0  0.2098  0.9298  0.5098000000000003  1.0000
  C   C3        1.0  0.0702  0.2098  0.25980000000000025  1.0000
  C   C4        1.0  0.7902  0.0702  0.009800000000000253  1.0000
  C   C5        1.0  0.043799999999999985  0.6584  0.8773  1.0000
  C   C6        1.0  0.3416  0.043799999999999985  0.6273  1.0000
  C   C7        1.0  0.9562  0.3416  0.37729999999999997  1.0000
  C   C8        1.0  0.6584  0.9562  0.12729999999999997  1.0000
  C   C9        1.0  0.9831  0.6692  0.07299999999999997  1.0000
  C   C10       1.0  0.3308  0.9831  0.823  1.0000
  C   C11       1.0  0.0169  0.3308  0.573  1.0000
  C   C12       1.0  0.6692  0.0169  0.32299999999999995  1.0000
  H   H9        1.0  0.9945  0.6283  0.20720000000000005  1.0000
  H   H10       1.0  0.37170000000000003  0.9945  0.9572  1.0000
  H   H11       1.0  0.0055  0.37170000000000003  0.7072  1.0000
  H   H12       1.0  0.6283  0.0055  0.45720000000000005  1.0000
  C   C13       1.0  0.135  0.5797  0.8435  1.0000
  C   C14       1.0  0.4203  0.135  0.5935000000000001  1.0000
  C   C15       1.0  0.8649999999999999  0.4203  0.34350000000000014  1.0000
  C   C16       1.0  0.5797  0.8649999999999999  0.09350000000000014  1.0000
  C   C17       1.0  0.1602  0.5012  0.01089999999999991  1.0000
  C   C18       1.0  0.49879999999999997  0.1602  0.7608999999999999  1.0000
  C   C19       1.0  0.8398  0.49879999999999997  0.5108999999999999  1.0000
  C   C20       1.0  0.5012  0.8398  0.2608999999999999  1.0000
  H   H13       1.0  0.1187  0.4985  0.14640000000000009  1.0000
  H   H14       1.0  0.5015000000000001  0.1187  0.8964000000000001  1.0000
  H   H15       1.0  0.8812999999999999  0.5015000000000001  0.6464000000000001  1.0000
  H   H16       1.0  0.4985  0.8812999999999999  0.3964000000000001  1.0000
  C   C21       1.0  0.2448  0.42799999999999994  0.9797  1.0000
  C   C22       1.0  0.5720000000000001  0.2448  0.7297  1.0000
  C   C23       1.0  0.7551999999999999  0.5720000000000001  0.47970000000000007  1.0000
  C   C24       1.0  0.42799999999999994  0.7551999999999999  0.22970000000000002  1.0000
  H   H17       1.0  0.2598  0.37559999999999993  0.09329999999999994  1.0000
  H   H18       1.0  0.6244000000000001  0.2598  0.8432999999999999  1.0000
  H   H19       1.0  0.7401999999999999  0.6244000000000001  0.5932999999999999  1.0000
  H   H20       1.0  0.37559999999999993  0.7401999999999999  0.3433  1.0000
  C   C25       1.0  0.3086  0.4309  0.7809  1.0000
  C   C26       1.0  0.5690999999999999  0.3086  0.5308999999999999  1.0000
  C   C27       1.0  0.6914  0.5690999999999999  0.2808999999999999  1.0000
  C   C28       1.0  0.4309  0.6914  0.030899999999999928  1.0000
  H   H21       1.0  0.3671  0.3821  0.7612  1.0000
  H   H22       1.0  0.6179  0.3671  0.5112000000000001  1.0000
  H   H23       1.0  0.6329  0.6179  0.2612000000000001  1.0000
  H   H24       1.0  0.3821  0.6329  0.0112000000000001  1.0000
  C   C29       1.0  0.2836  0.5073  0.6133  1.0000
  C   C30       1.0  0.4927  0.2836  0.36329999999999996  1.0000
  C   C31       1.0  0.7163999999999999  0.4927  0.11329999999999996  1.0000
  C   C32       1.0  0.5073  0.7163999999999999  0.8633  1.0000
  H   H25       1.0  0.3251  0.5093  0.4778  1.0000
  H   H26       1.0  0.4907  0.3251  0.2278  1.0000
  H   H27       1.0  0.6749  0.4907  0.9778000000000001  1.0000
  H   H28       1.0  0.5093  0.6749  0.7278000000000001  1.0000
  C   C33       1.0  0.1985  0.5808  0.6425  1.0000
  C   C34       1.0  0.4192  0.1985  0.3925000000000001  1.0000
  C   C35       1.0  0.8015  0.4192  0.14250000000000007  1.0000
  C   C36       1.0  0.5808  0.8015  0.8925000000000001  1.0000
  H   H29       1.0  0.1829  0.6319  0.5267  1.0000
  H   H30       1.0  0.3681  0.1829  0.27669999999999995  1.0000
  H   H31       1.0  0.8170999999999998  0.3681  0.02669999999999995  1.0000
  H   H32       1.0  0.6319  0.8170999999999998  0.7767000000000001  1.0000
