data_image0
_chemical_formula_structural       Ba4Ge8As8
_chemical_formula_sum              "Ba4 Ge8 As8"
_cell_length_a       7.618
_cell_length_b       7.618
_cell_length_c       8.5
_cell_angle_alpha    90.0
_cell_angle_beta     90.0
_cell_angle_gamma    90.0

_space_group_name_H-M_alt    "P 1"
_space_group_IT_number       1

loop_
  _space_group_symop_operation_xyz
  'x, y, z'

loop_
  _atom_site_type_symbol
  _atom_site_label
  _atom_site_symmetry_multiplicity
  _atom_site_fract_x
  _atom_site_fract_y
  _atom_site_fract_z
  _atom_site_occupancy
  Ba  Ba1       1.0  0.0  0.0  0.9879  1.0000
  Ba  Ba2       1.0  0.0  0.0  0.4879  1.0000
  Ba  Ba3       1.0  0.4999999999999999  0.0  0.0121  1.0000
  Ba  Ba4       1.0  0.0  0.4999999999999999  0.5121  1.0000
  Ge  Ge1       1.0  0.3350999999999999  0.4999999999999999  0.8543  1.0000
  Ge  Ge2       1.0  0.6649  0.49999999999999994  0.8543  1.0000
  Ge  Ge3       1.0  0.49999999999999994  0.3350999999999999  0.35429999999999984  1.0000
  Ge  Ge4       1.0  0.4999999999999999  0.6649  0.35429999999999984  1.0000
  Ge  Ge5       1.0  0.4999999999999999  0.1632  0.5947  1.0000
  Ge  Ge6       1.0  0.49999999999999994  0.8368  0.5947  1.0000
  Ge  Ge7       1.0  0.8368  0.4999999999999999  0.0947  1.0000
  Ge  Ge8       1.0  0.1632  0.49999999999999994  0.0947  1.0000
  As  As1       1.0  0.22899999999999995  0.24529999999999993  0.2437  1.0000
  As  As2       1.0  0.771  0.7546999999999999  0.2437  1.0000
  As  As3       1.0  0.7546999999999999  0.22899999999999995  0.7437  1.0000
  As  As4       1.0  0.24529999999999993  0.771  0.7437  1.0000
  As  As5       1.0  0.22899999999999995  0.7546999999999999  0.2437  1.0000
  As  As6       1.0  0.771  0.24529999999999993  0.2437  1.0000
  As  As7       1.0  0.7546999999999999  0.771  0.7437  1.0000
  As  As8       1.0  0.24529999999999993  0.22899999999999995  0.7437  1.0000
