data_image0
_chemical_formula_structural       In4Br16K4
_chemical_formula_sum              "In4 Br16 K4"
_cell_length_a       7.891
_cell_length_b       10.39
_cell_length_c       10.39
_cell_angle_alpha    90.0
_cell_angle_beta     90.0
_cell_angle_gamma    90.0

_space_group_name_H-M_alt    "P 1"
_space_group_IT_number       1

loop_
  _space_group_symop_operation_xyz
  'x, y, z'

loop_
  _atom_site_type_symbol
  _atom_site_label
  _atom_site_symmetry_multiplicity
  _atom_site_fract_x
  _atom_site_fract_y
  _atom_site_fract_z
  _atom_site_occupancy
  In  In1       1.0  0.25  0.0  0.1808  1.0000
  In  In2       1.0  0.25  0.5  0.31920000000000004  1.0000
  In  In3       1.0  0.7500000000000001  0.0  0.8192000000000002  1.0000
  In  In4       1.0  0.7500000000000001  0.5  0.6808  1.0000
  Br  Br1       1.0  0.3428  0.1875  0.0486  1.0000
  Br  Br2       1.0  0.1572  0.8124999999999999  0.0486  1.0000
  Br  Br3       1.0  0.3428  0.3125  0.4514  1.0000
  Br  Br4       1.0  0.1572  0.6875  0.4514  1.0000
  Br  Br5       1.0  0.6572  0.8124999999999999  0.9514  1.0000
  Br  Br6       1.0  0.8428000000000001  0.1875  0.9514  1.0000
  Br  Br7       1.0  0.6572  0.6875  0.5486  1.0000
  Br  Br8       1.0  0.8428000000000001  0.3125  0.5486  1.0000
  Br  Br9       1.0  0.9982000000000001  0.054400000000000004  0.3197  1.0000
  Br  Br10      1.0  0.5018  0.9456  0.3197  1.0000
  Br  Br11      1.0  0.9982000000000001  0.44559999999999994  0.18030000000000002  1.0000
  Br  Br12      1.0  0.5018  0.5544  0.18030000000000002  1.0000
  Br  Br13      1.0  0.0018  0.9456  0.6803  1.0000
  Br  Br14      1.0  0.49820000000000003  0.054400000000000004  0.6803  1.0000
  Br  Br15      1.0  0.0018  0.5544  0.8197  1.0000
  Br  Br16      1.0  0.49820000000000003  0.44559999999999994  0.8197  1.0000
  K   K1        1.0  0.6792  0.25  0.25  1.0000
  K   K2        1.0  0.8208000000000001  0.75  0.25  1.0000
  K   K3        1.0  0.3208  0.75  0.75  1.0000
  K   K4        1.0  0.17920000000000005  0.25  0.75  1.0000
