data_image0
_chemical_formula_structural       Fe16F48
_chemical_formula_sum              "Fe16 F48"
_cell_length_a       10.325
_cell_length_b       10.325
_cell_length_c       10.325
_cell_angle_alpha    90.0
_cell_angle_beta     90.0
_cell_angle_gamma    90.0

_space_group_name_H-M_alt    "P 1"
_space_group_IT_number       1

loop_
  _space_group_symop_operation_xyz
  'x, y, z'

loop_
  _atom_site_type_symbol
  _atom_site_label
  _atom_site_symmetry_multiplicity
  _atom_site_fract_x
  _atom_site_fract_y
  _atom_site_fract_z
  _atom_site_occupancy
  Fe  Fe1       1.0  0.0  0.0  0.0  1.0000
  Fe  Fe2       1.0  0.0  0.25  0.25  1.0000
  Fe  Fe3       1.0  0.25  0.0  0.25  1.0000
  Fe  Fe4       1.0  0.25  0.25  0.0  1.0000
  Fe  Fe5       1.0  0.0  0.75  0.75  1.0000
  Fe  Fe6       1.0  0.75  0.0  0.75  1.0000
  Fe  Fe7       1.0  0.75  0.75  0.0  1.0000
  Fe  Fe8       1.0  0.0  0.5  0.5  1.0000
  Fe  Fe9       1.0  0.5  0.0  0.5  1.0000
  Fe  Fe10      1.0  0.5  0.5  0.0  1.0000
  Fe  Fe11      1.0  0.5  0.25  0.75  1.0000
  Fe  Fe12      1.0  0.5  0.75  0.25  1.0000
  Fe  Fe13      1.0  0.25  0.5  0.75  1.0000
  Fe  Fe14      1.0  0.75  0.5  0.25  1.0000
  Fe  Fe15      1.0  0.25  0.75  0.5  1.0000
  Fe  Fe16      1.0  0.75  0.25  0.5  1.0000
  F   F1        1.0  0.3104  0.125  0.125  1.0000
  F   F2        1.0  0.9396  0.125  0.125  1.0000
  F   F3        1.0  0.125  0.125  0.3104  1.0000
  F   F4        1.0  0.125  0.125  0.9396  1.0000
  F   F5        1.0  0.125  0.3104  0.125  1.0000
  F   F6        1.0  0.125  0.9396  0.125  1.0000
  F   F7        1.0  0.6896  0.875  0.875  1.0000
  F   F8        1.0  0.06040000000000001  0.875  0.875  1.0000
  F   F9        1.0  0.875  0.875  0.6896  1.0000
  F   F10       1.0  0.875  0.875  0.06040000000000001  1.0000
  F   F11       1.0  0.875  0.6896  0.875  1.0000
  F   F12       1.0  0.875  0.06040000000000001  0.875  1.0000
  F   F13       1.0  0.3104  0.6250000000000001  0.6250000000000001  1.0000
  F   F14       1.0  0.8104  0.125  0.6250000000000001  1.0000
  F   F15       1.0  0.8104  0.6250000000000001  0.125  1.0000
  F   F16       1.0  0.9396  0.6250000000000001  0.6250000000000001  1.0000
  F   F17       1.0  0.4396  0.125  0.6250000000000001  1.0000
  F   F18       1.0  0.4396  0.6250000000000001  0.125  1.0000
  F   F19       1.0  0.125  0.6250000000000001  0.8104  1.0000
  F   F20       1.0  0.6250000000000001  0.125  0.8104  1.0000
  F   F21       1.0  0.6250000000000001  0.6250000000000001  0.3104  1.0000
  F   F22       1.0  0.125  0.6250000000000001  0.4396  1.0000
  F   F23       1.0  0.6250000000000001  0.125  0.4396  1.0000
  F   F24       1.0  0.6250000000000001  0.6250000000000001  0.9396  1.0000
  F   F25       1.0  0.125  0.8104  0.6250000000000001  1.0000
  F   F26       1.0  0.6250000000000001  0.3104  0.6250000000000001  1.0000
  F   F27       1.0  0.6250000000000001  0.8104  0.125  1.0000
  F   F28       1.0  0.125  0.4396  0.6250000000000001  1.0000
  F   F29       1.0  0.6250000000000001  0.9396  0.6250000000000001  1.0000
  F   F30       1.0  0.6250000000000001  0.4396  0.125  1.0000
  F   F31       1.0  0.6896  0.375  0.375  1.0000
  F   F32       1.0  0.1896  0.875  0.375  1.0000
  F   F33       1.0  0.1896  0.375  0.875  1.0000
  F   F34       1.0  0.06040000000000001  0.375  0.375  1.0000
  F   F35       1.0  0.5604000000000001  0.875  0.375  1.0000
  F   F36       1.0  0.5604000000000001  0.375  0.875  1.0000
  F   F37       1.0  0.875  0.375  0.1896  1.0000
  F   F38       1.0  0.375  0.875  0.1896  1.0000
  F   F39       1.0  0.375  0.375  0.6896  1.0000
  F   F40       1.0  0.875  0.375  0.5604000000000001  1.0000
  F   F41       1.0  0.375  0.875  0.5604000000000001  1.0000
  F   F42       1.0  0.375  0.375  0.06040000000000001  1.0000
  F   F43       1.0  0.875  0.1896  0.375  1.0000
  F   F44       1.0  0.375  0.6896  0.375  1.0000
  F   F45       1.0  0.375  0.1896  0.875  1.0000
  F   F46       1.0  0.875  0.5604000000000001  0.375  1.0000
  F   F47       1.0  0.375  0.06040000000000001  0.375  1.0000
  F   F48       1.0  0.375  0.5604000000000001  0.875  1.0000
