data_image0
_chemical_formula_structural       N8Si6
_chemical_formula_sum              "N8 Si6"
_cell_length_a       7.6018
_cell_length_b       7.601799999999999
_cell_length_c       2.9066
_cell_angle_alpha    90.0
_cell_angle_beta     90.0
_cell_angle_gamma    119.99999999999999

_space_group_name_H-M_alt    "P 1"
_space_group_IT_number       1

loop_
  _space_group_symop_operation_xyz
  'x, y, z'

loop_
  _atom_site_type_symbol
  _atom_site_label
  _atom_site_symmetry_multiplicity
  _atom_site_fract_x
  _atom_site_fract_y
  _atom_site_fract_z
  _atom_site_occupancy
  N   N1        1.0  0.3333  0.6667  0.25  1.0000
  N   N2        1.0  0.6667000000000001  0.33330000000000004  0.7499999999999999  1.0000
  N   N3        1.0  0.3337  0.0323  0.25  1.0000
  N   N4        1.0  0.9677000000000001  0.3014  0.25  1.0000
  N   N5        1.0  0.6986000000000001  0.6663  0.25  1.0000
  N   N6        1.0  0.6663  0.9676999999999999  0.7499999999999999  1.0000
  N   N7        1.0  0.03230000000000001  0.6986  0.7499999999999999  1.0000
  N   N8        1.0  0.3014  0.33369999999999994  0.7499999999999999  1.0000
  Si  Si1       1.0  0.17729999999999996  0.7676999999999999  0.25  1.0000
  Si  Si2       1.0  0.23230000000000006  0.4095999999999999  0.25  1.0000
  Si  Si3       1.0  0.5904000000000001  0.8227  0.25  1.0000
  Si  Si4       1.0  0.8227  0.23230000000000003  0.7499999999999999  1.0000
  Si  Si5       1.0  0.7677  0.5904  0.7499999999999999  1.0000
  Si  Si6       1.0  0.4096  0.17729999999999993  0.7499999999999999  1.0000
