data_image0
_chemical_formula_structural       Ce4P20O56
_chemical_formula_sum              "Ce4 P20 O56"
_cell_length_a       13.1252
_cell_length_b       8.7991
_cell_length_c       9.0741
_cell_angle_alpha    90.0
_cell_angle_beta     90.0
_cell_angle_gamma    90.0

_space_group_name_H-M_alt    "P 1"
_space_group_IT_number       1

loop_
  _space_group_symop_operation_xyz
  'x, y, z'

loop_
  _atom_site_type_symbol
  _atom_site_label
  _atom_site_symmetry_multiplicity
  _atom_site_fract_x
  _atom_site_fract_y
  _atom_site_fract_z
  _atom_site_occupancy
  Ce  Ce1       1.0  0.4999999999999999  0.72337  0.68985  1.0000
  Ce  Ce2       1.0  5.551115123125782e-17  0.27663000000000004  0.18984999999999985  1.0000
  Ce  Ce3       1.0  0.4999999999999999  0.27663000000000004  0.31015000000000004  1.0000
  Ce  Ce4       1.0  5.551115123125782e-17  0.72337  0.81015  1.0000
  P   P1        1.0  0.29359999999999997  0.5  0.5  1.0000
  P   P2        1.0  0.2064  0.5  0.0  1.0000
  P   P3        1.0  0.7064  0.5  0.5  1.0000
  P   P4        1.0  0.7935999999999999  0.5  0.0  1.0000
  P   P5        1.0  0.0  0.3121  0.7524  1.0000
  P   P6        1.0  0.49999999999999994  0.6879  0.25239999999999996  1.0000
  P   P7        1.0  0.0  0.6879  0.24760000000000004  1.0000
  P   P8        1.0  0.49999999999999994  0.3121  0.7476  1.0000
  P   P9        1.0  0.3233  0.0  0.5  1.0000
  P   P10       1.0  0.1767  0.0  0.0  1.0000
  P   P11       1.0  0.6767  0.0  0.5  1.0000
  P   P12       1.0  0.8232999999999999  0.0  0.0  1.0000
  P   P13       1.0  0.16331999999999994  0.2351  0.54996  1.0000
  P   P14       1.0  0.33668000000000003  0.7648999999999999  0.049960000000000004  1.0000
  P   P15       1.0  0.16331999999999994  0.7648999999999999  0.45003999999999994  1.0000
  P   P16       1.0  0.33668000000000003  0.2351  0.95004  1.0000
  P   P17       1.0  0.83668  0.7648999999999999  0.45003999999999994  1.0000
  P   P18       1.0  0.6633199999999999  0.2351  0.95004  1.0000
  P   P19       1.0  0.83668  0.2351  0.54996  1.0000
  P   P20       1.0  0.6633199999999999  0.7648999999999999  0.049960000000000004  1.0000
  O   O1        1.0  0.11289999999999997  0.2256  0.4081  1.0000
  O   O2        1.0  0.3871  0.7744  0.9081  1.0000
  O   O3        1.0  0.11289999999999997  0.7744  0.5919  1.0000
  O   O4        1.0  0.3871  0.2256  0.09189999999999998  1.0000
  O   O5        1.0  0.8871  0.7744  0.5919  1.0000
  O   O6        1.0  0.6128999999999999  0.2256  0.09189999999999998  1.0000
  O   O7        1.0  0.8871  0.2256  0.4081  1.0000
  O   O8        1.0  0.6128999999999999  0.7744  0.9081  1.0000
  O   O9        1.0  0.3474  0.5859  0.6151  1.0000
  O   O10       1.0  0.1526  0.4141  0.11509999999999997  1.0000
  O   O11       1.0  0.3474  0.4141  0.3849  1.0000
  O   O12       1.0  0.1526  0.5859  0.8848999999999999  1.0000
  O   O13       1.0  0.6526  0.4141  0.3849  1.0000
  O   O14       1.0  0.8473999999999999  0.5859  0.8848999999999999  1.0000
  O   O15       1.0  0.6526  0.5859  0.6151  1.0000
  O   O16       1.0  0.8473999999999999  0.4141  0.11509999999999997  1.0000
  O   O17       1.0  0.24509999999999998  0.11229999999999997  0.5815  1.0000
  O   O18       1.0  0.25489999999999996  0.8876999999999999  0.08150000000000013  1.0000
  O   O19       1.0  0.24509999999999998  0.8876999999999999  0.4185  1.0000
  O   O20       1.0  0.25489999999999996  0.11229999999999997  0.9185  1.0000
  O   O21       1.0  0.7549  0.8876999999999999  0.4185  1.0000
  O   O22       1.0  0.7450999999999999  0.11229999999999997  0.9185  1.0000
  O   O23       1.0  0.7549  0.11229999999999997  0.5815  1.0000
  O   O24       1.0  0.7450999999999999  0.8876999999999999  0.08150000000000013  1.0000
  O   O25       1.0  0.0  0.46549999999999997  0.6859  1.0000
  O   O26       1.0  0.49999999999999994  0.5345  0.18589999999999995  1.0000
  O   O27       1.0  0.0  0.5345  0.31410000000000005  1.0000
  O   O28       1.0  0.49999999999999994  0.46549999999999997  0.8141  1.0000
  O   O29       1.0  0.21509999999999996  0.3901  0.5849  1.0000
  O   O30       1.0  0.28490000000000004  0.6099  0.08489999999999998  1.0000
  O   O31       1.0  0.21509999999999996  0.6099  0.4151  1.0000
  O   O32       1.0  0.28490000000000004  0.3901  0.9150999999999999  1.0000
  O   O33       1.0  0.7849  0.6099  0.4151  1.0000
  O   O34       1.0  0.7150999999999998  0.3901  0.9150999999999999  1.0000
  O   O35       1.0  0.7849  0.3901  0.5849  1.0000
  O   O36       1.0  0.7150999999999998  0.6099  0.08489999999999998  1.0000
  O   O37       1.0  0.3778  0.9201  0.6175  1.0000
  O   O38       1.0  0.12219999999999996  0.07989999999999998  0.11750000000000016  1.0000
  O   O39       1.0  0.3778  0.07989999999999998  0.38249999999999995  1.0000
  O   O40       1.0  0.12219999999999996  0.9201  0.8824999999999998  1.0000
  O   O41       1.0  0.6221999999999999  0.07989999999999998  0.38249999999999995  1.0000
  O   O42       1.0  0.8778  0.9201  0.8824999999999998  1.0000
  O   O43       1.0  0.6221999999999999  0.9201  0.6175  1.0000
  O   O44       1.0  0.8778  0.07989999999999998  0.11750000000000016  1.0000
  O   O45       1.0  0.0  0.2893  0.9131000000000001  1.0000
  O   O46       1.0  0.49999999999999994  0.7107  0.4131  1.0000
  O   O47       1.0  0.0  0.7107  0.08689999999999987  1.0000
  O   O48       1.0  0.49999999999999994  0.2893  0.5868999999999999  1.0000
  O   O49       1.0  0.0934  0.21329999999999993  0.6876  1.0000
  O   O50       1.0  0.4066  0.7867  0.1876  1.0000
  O   O51       1.0  0.0934  0.7867  0.3124  1.0000
  O   O52       1.0  0.4066  0.21329999999999993  0.8124  1.0000
  O   O53       1.0  0.9065999999999999  0.7867  0.3124  1.0000
  O   O54       1.0  0.5934  0.21329999999999993  0.8124  1.0000
  O   O55       1.0  0.9065999999999999  0.21329999999999993  0.6876  1.0000
  O   O56       1.0  0.5934  0.7867  0.1876  1.0000
