data_image0
_chemical_formula_structural       Nb4Zn4Mn4O18
_chemical_formula_sum              "Nb4 Zn4 Mn4 O18"
_cell_length_a       5.2617
_cell_length_b       5.2617
_cell_length_c       14.3422
_cell_angle_alpha    90.0
_cell_angle_beta     90.0
_cell_angle_gamma    119.99999999999999

_space_group_name_H-M_alt    "P 1"
_space_group_IT_number       1

loop_
  _space_group_symop_operation_xyz
  'x, y, z'

loop_
  _atom_site_type_symbol
  _atom_site_label
  _atom_site_symmetry_multiplicity
  _atom_site_fract_x
  _atom_site_fract_y
  _atom_site_fract_z
  _atom_site_occupancy
  Nb  Nb1       1.0  0.0  0.0  0.3591000000000001  1.0000
  Nb  Nb2       1.0  0.0  0.0  0.8591000000000001  1.0000
  Nb  Nb3       1.0  0.0  0.0  0.1411  1.0000
  Nb  Nb4       1.0  0.0  0.0  0.6411  1.0000
  Zn  Zn1       1.0  0.3333  0.6667  0.3035  1.0000
  Zn  Zn2       1.0  0.33330000000000004  0.6667000000000001  0.8035000000000001  1.0000
  Zn  Zn3       1.0  0.6667  0.3333  0.20640000000000006  1.0000
  Zn  Zn4       1.0  0.6667000000000001  0.33330000000000004  0.7064  1.0000
  Mn  Mn1       1.0  0.3333  0.6667  0.0175  1.0000
  Mn  Mn2       1.0  0.33330000000000004  0.6667000000000001  0.5175  1.0000
  Mn  Mn3       1.0  0.6667  0.3333  0.4876  1.0000
  Mn  Mn4       1.0  0.6667000000000001  0.33330000000000004  0.9876  1.0000
  O   O1        1.0  0.337  0.311  0.088  1.0000
  O   O2        1.0  0.6890000000000001  0.026000000000000023  0.088  1.0000
  O   O3        1.0  0.974  0.663  0.088  1.0000
  O   O4        1.0  0.6890000000000001  0.663  0.5880000000000001  1.0000
  O   O5        1.0  0.974  0.311  0.5880000000000001  1.0000
  O   O6        1.0  0.337  0.026000000000000023  0.5880000000000001  1.0000
  O   O7        1.0  0.308  0.334  0.413  1.0000
  O   O8        1.0  0.6659999999999999  0.974  0.413  1.0000
  O   O9        1.0  0.02600000000000002  0.692  0.413  1.0000
  O   O10       1.0  0.6659999999999999  0.692  0.913  1.0000
  O   O11       1.0  0.026000000000000013  0.334  0.913  1.0000
  O   O12       1.0  0.308  0.974  0.913  1.0000
  O   O13       1.0  0.27500000000000013  0.9990000000000001  0.259  1.0000
  O   O14       1.0  0.000999999999999884  0.276  0.259  1.0000
  O   O15       1.0  0.724  0.7249999999999999  0.259  1.0000
  O   O16       1.0  0.0009999999999998706  0.7249999999999999  0.759  1.0000
  O   O17       1.0  0.724  0.9990000000000001  0.759  1.0000
  O   O18       1.0  0.27500000000000013  0.276  0.759  1.0000
