data_image0
_chemical_formula_structural       Sr4Ag24O16
_chemical_formula_sum              "Sr4 Ag24 O16"
_cell_length_a       6.518
_cell_length_b       12.416
_cell_length_c       8.909
_cell_angle_alpha    90.0
_cell_angle_beta     90.0
_cell_angle_gamma    90.0

_space_group_name_H-M_alt    "P 1"
_space_group_IT_number       1

loop_
  _space_group_symop_operation_xyz
  'x, y, z'

loop_
  _atom_site_type_symbol
  _atom_site_label
  _atom_site_symmetry_multiplicity
  _atom_site_fract_x
  _atom_site_fract_y
  _atom_site_fract_z
  _atom_site_occupancy
  Sr  Sr1       1.0  0.25  0.0  0.618  1.0000
  Sr  Sr2       1.0  0.25  0.49999999999999994  0.882  1.0000
  Sr  Sr3       1.0  0.75  0.0  0.382  1.0000
  Sr  Sr4       1.0  0.75  0.49999999999999994  0.11799999999999988  1.0000
  Ag  Ag1       1.0  0.0  0.0  0.0  1.0000
  Ag  Ag2       1.0  0.5  0.0  0.0  1.0000
  Ag  Ag3       1.0  0.0  0.49999999999999994  0.5  1.0000
  Ag  Ag4       1.0  0.5  0.49999999999999994  0.5  1.0000
  Ag  Ag5       1.0  0.204  0.122  0.263  1.0000
  Ag  Ag6       1.0  0.29600000000000004  0.878  0.263  1.0000
  Ag  Ag7       1.0  0.204  0.378  0.23699999999999996  1.0000
  Ag  Ag8       1.0  0.29600000000000004  0.6219999999999999  0.23699999999999996  1.0000
  Ag  Ag9       1.0  0.796  0.878  0.737  1.0000
  Ag  Ag10      1.0  0.704  0.122  0.737  1.0000
  Ag  Ag11      1.0  0.796  0.6219999999999999  0.763  1.0000
  Ag  Ag12      1.0  0.704  0.378  0.763  1.0000
  Ag  Ag13      1.0  0.923  0.23899999999999996  0.038  1.0000
  Ag  Ag14      1.0  0.577  0.761  0.038  1.0000
  Ag  Ag15      1.0  0.923  0.261  0.4620000000000001  1.0000
  Ag  Ag16      1.0  0.577  0.7389999999999999  0.4620000000000001  1.0000
  Ag  Ag17      1.0  0.07699999999999996  0.761  0.962  1.0000
  Ag  Ag18      1.0  0.42300000000000004  0.23899999999999996  0.962  1.0000
  Ag  Ag19      1.0  0.07699999999999996  0.7389999999999999  0.538  1.0000
  Ag  Ag20      1.0  0.42300000000000004  0.261  0.538  1.0000
  Ag  Ag21      1.0  0.598  0.24999999999999994  0.25  1.0000
  Ag  Ag22      1.0  0.9019999999999999  0.75  0.25  1.0000
  Ag  Ag23      1.0  0.402  0.75  0.7500000000000001  1.0000
  Ag  Ag24      1.0  0.09799999999999986  0.24999999999999994  0.7500000000000001  1.0000
  O   O1        1.0  0.453  0.11999999999999998  0.416  1.0000
  O   O2        1.0  0.046999999999999986  0.88  0.416  1.0000
  O   O3        1.0  0.453  0.38  0.08400000000000002  1.0000
  O   O4        1.0  0.046999999999999986  0.6199999999999999  0.08400000000000002  1.0000
  O   O5        1.0  0.5469999999999999  0.88  0.5840000000000001  1.0000
  O   O6        1.0  0.9530000000000001  0.11999999999999998  0.5840000000000001  1.0000
  O   O7        1.0  0.5469999999999999  0.6199999999999999  0.9159999999999999  1.0000
  O   O8        1.0  0.9530000000000001  0.38  0.9159999999999999  1.0000
  O   O9        1.0  0.9  0.103  0.17  1.0000
  O   O10       1.0  0.6  0.8969999999999999  0.17  1.0000
  O   O11       1.0  0.9  0.39699999999999996  0.32999999999999996  1.0000
  O   O12       1.0  0.6  0.603  0.32999999999999996  1.0000
  O   O13       1.0  0.09999999999999998  0.8969999999999999  0.83  1.0000
  O   O14       1.0  0.3999999999999999  0.103  0.83  1.0000
  O   O15       1.0  0.09999999999999998  0.603  0.67  1.0000
  O   O16       1.0  0.3999999999999999  0.39699999999999996  0.67  1.0000
