data_image0
_chemical_formula_structural       Nb8O24H2
_chemical_formula_sum              "Nb8 O24 H2"
_cell_length_a       7.5875
_cell_length_b       7.5875
_cell_length_c       7.5875
_cell_angle_alpha    90.0
_cell_angle_beta     90.0
_cell_angle_gamma    90.0

_space_group_name_H-M_alt    "P 1"
_space_group_IT_number       1

loop_
  _space_group_symop_operation_xyz
  'x, y, z'

loop_
  _atom_site_type_symbol
  _atom_site_label
  _atom_site_symmetry_multiplicity
  _atom_site_fract_x
  _atom_site_fract_y
  _atom_site_fract_z
  _atom_site_occupancy
  Nb  Nb1       1.0  0.25  0.25  0.25  0.6000
  Nb  Nb2       1.0  0.25  0.7500000000000001  0.7500000000000001  0.6000
  Nb  Nb3       1.0  0.7500000000000001  0.25  0.7500000000000001  0.6000
  Nb  Nb4       1.0  0.7500000000000001  0.7500000000000001  0.25  0.6000
  Nb  Nb5       1.0  0.7500000000000001  0.7500000000000001  0.7500000000000001  0.6000
  Nb  Nb6       1.0  0.7500000000000001  0.25  0.25  0.6000
  Nb  Nb7       1.0  0.25  0.7500000000000001  0.25  0.6000
  Nb  Nb8       1.0  0.25  0.25  0.7500000000000001  0.6000
  O   O1        1.0  0.0  0.21  0.294  1.0000
  O   O2        1.0  0.0  0.79  0.706  1.0000
  O   O3        1.0  0.0  0.21  0.706  1.0000
  O   O4        1.0  0.0  0.79  0.294  1.0000
  O   O5        1.0  0.21  0.294  0.0  1.0000
  O   O6        1.0  0.79  0.706  0.0  1.0000
  O   O7        1.0  0.21  0.706  0.0  1.0000
  O   O8        1.0  0.79  0.294  0.0  1.0000
  O   O9        1.0  0.294  0.0  0.21  1.0000
  O   O10       1.0  0.706  0.0  0.79  1.0000
  O   O11       1.0  0.706  0.0  0.21  1.0000
  O   O12       1.0  0.294  0.0  0.79  1.0000
  O   O13       1.0  0.5  0.71  0.794  1.0000
  O   O14       1.0  0.5  0.29000000000000004  0.20600000000000002  1.0000
  O   O15       1.0  0.5  0.71  0.20600000000000002  1.0000
  O   O16       1.0  0.5  0.29000000000000004  0.794  1.0000
  O   O17       1.0  0.71  0.794  0.5  1.0000
  O   O18       1.0  0.29000000000000004  0.20600000000000002  0.5  1.0000
  O   O19       1.0  0.71  0.20600000000000002  0.5  1.0000
  O   O20       1.0  0.29000000000000004  0.794  0.5  1.0000
  O   O21       1.0  0.794  0.5  0.71  1.0000
  O   O22       1.0  0.20600000000000002  0.5  0.29000000000000004  1.0000
  O   O23       1.0  0.20600000000000002  0.5  0.71  1.0000
  O   O24       1.0  0.794  0.5  0.29000000000000004  1.0000
  H   H1        1.0  0.0  0.0  0.0  0.6000
  H   H2        1.0  0.5  0.5  0.5  0.6000
  W   W1        1.0  0.25  0.25  0.25  0.4000
  W   W2        1.0  0.25  0.7500000000000001  0.7500000000000001  0.4000
  W   W3        1.0  0.7500000000000001  0.25  0.7500000000000001  0.4000
  W   W4        1.0  0.7500000000000001  0.7500000000000001  0.25  0.4000
  W   W5        1.0  0.7500000000000001  0.7500000000000001  0.7500000000000001  0.4000
  W   W6        1.0  0.7500000000000001  0.25  0.25  0.4000
  W   W7        1.0  0.25  0.7500000000000001  0.25  0.4000
  W   W8        1.0  0.25  0.25  0.7500000000000001  0.4000
