data_image0
_chemical_formula_structural       Y2Si12N16
_chemical_formula_sum              "Y2 Si12 N16"
_cell_length_a       7.82927
_cell_length_b       7.829269999999999
_cell_length_c       5.70757
_cell_angle_alpha    90.0
_cell_angle_beta     90.0
_cell_angle_gamma    119.99999999999999

_space_group_name_H-M_alt    "P 1"
_space_group_IT_number       1

loop_
  _space_group_symop_operation_xyz
  'x, y, z'

loop_
  _atom_site_type_symbol
  _atom_site_label
  _atom_site_symmetry_multiplicity
  _atom_site_fract_x
  _atom_site_fract_y
  _atom_site_fract_z
  _atom_site_occupancy
  Y   Y1        1.0  0.3333  0.6667  0.24200000000000002  0.2720
  Y   Y2        1.0  0.6667  0.33329999999999993  0.742  0.2720
  Si  Si1       1.0  0.5087  0.0819  0.213  0.7700
  Si  Si2       1.0  0.9181  0.42680000000000007  0.213  0.7700
  Si  Si3       1.0  0.5731999999999999  0.49129999999999996  0.213  0.7700
  Si  Si4       1.0  0.08189999999999995  0.5086999999999999  0.713  0.7700
  Si  Si5       1.0  0.4268  0.9180999999999999  0.713  0.7700
  Si  Si6       1.0  0.4912999999999999  0.5731999999999998  0.713  0.7700
  Si  Si7       1.0  0.1706  0.2533  0.002  0.7700
  Si  Si8       1.0  0.7466999999999998  0.9172999999999999  0.002  0.7700
  Si  Si9       1.0  0.08269999999999997  0.8293999999999999  0.002  0.7700
  Si  Si10      1.0  0.2533  0.17059999999999997  0.502  0.7700
  Si  Si11      1.0  0.9172999999999999  0.7466999999999999  0.502  0.7700
  Si  Si12      1.0  0.8294  0.08270000000000001  0.502  0.7700
  N   N1        1.0  0.0  0.0  0.0  0.9400
  N   N2        1.0  0.0  0.0  0.5  0.9400
  N   N3        1.0  0.3333  0.6667  0.653  0.9400
  N   N4        1.0  0.6667  0.33329999999999993  0.15300000000000002  0.9400
  N   N5        1.0  0.3458  0.9528  0.995  0.9400
  N   N6        1.0  0.047199999999999985  0.393  0.995  0.9400
  N   N7        1.0  0.607  0.6542  0.995  0.9400
  N   N8        1.0  0.9527999999999999  0.34579999999999994  0.495  0.9400
  N   N9        1.0  0.393  0.047199999999999985  0.495  0.9400
  N   N10       1.0  0.6542  0.607  0.495  0.9400
  N   N11       1.0  0.3219  0.318  0.246  0.9400
  N   N12       1.0  0.6819999999999999  0.003900000000000014  0.246  0.9400
  N   N13       1.0  0.9960999999999999  0.6780999999999999  0.246  0.9400
  N   N14       1.0  0.318  0.3219  0.746  0.9400
  N   N15       1.0  0.003899999999999987  0.6819999999999998  0.746  0.9400
  N   N16       1.0  0.6780999999999998  0.9960999999999999  0.746  0.9400
  Al  Al1       1.0  0.5087  0.0819  0.213  0.2300
  Al  Al2       1.0  0.9181  0.42680000000000007  0.213  0.2300
  Al  Al3       1.0  0.5731999999999999  0.49129999999999996  0.213  0.2300
  Al  Al4       1.0  0.08189999999999995  0.5086999999999999  0.713  0.2300
  Al  Al5       1.0  0.4268  0.9180999999999999  0.713  0.2300
  Al  Al6       1.0  0.4912999999999999  0.5731999999999998  0.713  0.2300
  Al  Al7       1.0  0.1706  0.2533  0.002  0.2300
  Al  Al8       1.0  0.7466999999999998  0.9172999999999999  0.002  0.2300
  Al  Al9       1.0  0.08269999999999997  0.8293999999999999  0.002  0.2300
  Al  Al10      1.0  0.2533  0.17059999999999997  0.502  0.2300
  Al  Al11      1.0  0.9172999999999999  0.7466999999999999  0.502  0.2300
  Al  Al12      1.0  0.8294  0.08270000000000001  0.502  0.2300
  O   O1        1.0  0.0  0.0  0.0  0.0600
  O   O2        1.0  0.0  0.0  0.5  0.0600
  O   O3        1.0  0.3333  0.6667  0.653  0.0600
  O   O4        1.0  0.6667  0.33329999999999993  0.15300000000000002  0.0600
  O   O5        1.0  0.3458  0.9528  0.995  0.0600
  O   O6        1.0  0.047199999999999985  0.393  0.995  0.0600
  O   O7        1.0  0.607  0.6542  0.995  0.0600
  O   O8        1.0  0.9527999999999999  0.34579999999999994  0.495  0.0600
  O   O9        1.0  0.393  0.047199999999999985  0.495  0.0600
  O   O10       1.0  0.6542  0.607  0.495  0.0600
  O   O11       1.0  0.3219  0.318  0.246  0.0600
  O   O12       1.0  0.6819999999999999  0.003900000000000014  0.246  0.0600
  O   O13       1.0  0.9960999999999999  0.6780999999999999  0.246  0.0600
  O   O14       1.0  0.318  0.3219  0.746  0.0600
  O   O15       1.0  0.003899999999999987  0.6819999999999998  0.746  0.0600
  O   O16       1.0  0.6780999999999998  0.9960999999999999  0.746  0.0600
