data_image0
_chemical_formula_structural       P12O36Li12
_chemical_formula_sum              "P12 O36 Li12"
_cell_length_a       7.9911
_cell_length_b       17.03189
_cell_length_c       5.320799999999999
_cell_angle_alpha    90.0
_cell_angle_beta     99.43300000000002
_cell_angle_gamma    90.0

_space_group_name_H-M_alt    "P 1"
_space_group_IT_number       1

loop_
  _space_group_symop_operation_xyz
  'x, y, z'

loop_
  _atom_site_type_symbol
  _atom_site_label
  _atom_site_symmetry_multiplicity
  _atom_site_fract_x
  _atom_site_fract_y
  _atom_site_fract_z
  _atom_site_occupancy
  P   P1        1.0  0.5948  0.1919  0.9883999999999998  1.0000
  P   P2        1.0  0.0948  0.30810000000000004  0.4884  1.0000
  P   P3        1.0  0.4052  0.8080999999999999  0.0116  1.0000
  P   P4        1.0  0.9052  0.6919  0.5116  1.0000
  P   P5        1.0  0.7824  0.0653  0.2802  1.0000
  P   P6        1.0  0.2824  0.4346999999999999  0.7801999999999999  1.0000
  P   P7        1.0  0.21760000000000004  0.9347  0.7198  1.0000
  P   P8        1.0  0.7176  0.5652999999999999  0.21979999999999997  1.0000
  P   P9        1.0  0.8128  0.4010999999999999  0.20119999999999993  1.0000
  P   P10       1.0  0.31279999999999997  0.09890000000000004  0.7011999999999999  1.0000
  P   P11       1.0  0.1872  0.5988999999999999  0.7988  1.0000
  P   P12       1.0  0.6872  0.9011  0.2988  1.0000
  O   O1        1.0  0.3553  0.4330999999999999  0.049  1.0000
  O   O2        1.0  0.8552999999999998  0.06690000000000007  0.5489999999999999  1.0000
  O   O3        1.0  0.6447  0.5669000000000001  0.951  1.0000
  O   O4        1.0  0.1447  0.9330999999999998  0.45099999999999996  1.0000
  O   O5        1.0  0.8016  0.8707999999999998  0.11999999999999998  1.0000
  O   O6        1.0  0.3016000000000001  0.6292000000000001  0.62  1.0000
  O   O7        1.0  0.19840000000000002  0.1292000000000001  0.8799999999999999  1.0000
  O   O8        1.0  0.6984  0.3708  0.38  1.0000
  O   O9        1.0  0.2467  0.6054  0.07499999999999998  1.0000
  O   O10       1.0  0.7467  0.8945999999999998  0.575  1.0000
  O   O11       1.0  0.7533000000000001  0.3945999999999999  0.925  1.0000
  O   O12       1.0  0.25329999999999997  0.10539999999999994  0.42500000000000004  1.0000
  O   O13       1.0  0.8487  0.4917  0.271  1.0000
  O   O14       1.0  0.3487  0.008299999999999974  0.7709999999999999  1.0000
  O   O15       1.0  0.1513  0.5083  0.7289999999999999  1.0000
  O   O16       1.0  0.6513  0.9917  0.22899999999999998  1.0000
  O   O17       1.0  0.6464  0.1356  0.21999999999999997  1.0000
  O   O18       1.0  0.14639999999999986  0.3644  0.7199999999999999  1.0000
  O   O19       1.0  0.3536  0.8644000000000001  0.78  1.0000
  O   O20       1.0  0.8536  0.6355999999999998  0.28  1.0000
  O   O21       1.0  0.4697  0.2442  0.07499999999999998  1.0000
  O   O22       1.0  0.9697  0.2558  0.575  1.0000
  O   O23       1.0  0.5303  0.7558  0.925  1.0000
  O   O24       1.0  0.030299999999999997  0.7441999999999999  0.42500000000000004  1.0000
  O   O25       1.0  0.8946  0.06029999999999999  0.08799999999999998  1.0000
  O   O26       1.0  0.3946000000000001  0.4396999999999999  0.588  1.0000
  O   O27       1.0  0.10540000000000005  0.9396999999999999  0.912  1.0000
  O   O28       1.0  0.6053999999999999  0.5603  0.412  1.0000
  O   O29       1.0  0.2546  0.7803999999999998  0.11999999999999998  1.0000
  O   O30       1.0  0.7545999999999999  0.7196000000000001  0.62  1.0000
  O   O31       1.0  0.7454000000000001  0.21960000000000013  0.8799999999999999  1.0000
  O   O32       1.0  0.2454  0.28039999999999976  0.38  1.0000
  O   O33       1.0  0.9961000000000001  0.3686  0.27499999999999997  1.0000
  O   O34       1.0  0.4961  0.13140000000000002  0.7749999999999998  1.0000
  O   O35       1.0  0.0039000000000000016  0.6314  0.725  1.0000
  O   O36       1.0  0.5039  0.8685999999999999  0.22500000000000003  1.0000
  Li  Li1       1.0  0.43800000000000006  0.347  0.254  1.0000
  Li  Li2       1.0  0.9380000000000001  0.15300000000000002  0.754  1.0000
  Li  Li3       1.0  0.5619999999999999  0.6529999999999999  0.7459999999999999  1.0000
  Li  Li4       1.0  0.061999999999999944  0.847  0.246  1.0000
  Li  Li5       1.0  0.366  0.517  0.286  1.0000
  Li  Li6       1.0  0.866  0.9829999999999999  0.7859999999999999  1.0000
  Li  Li7       1.0  0.634  0.48299999999999993  0.714  1.0000
  Li  Li8       1.0  0.134  0.016999999999999904  0.214  1.0000
  Li  Li9       1.0  0.257  0.683  0.302  1.0000
  Li  Li10      1.0  0.757  0.817  0.802  1.0000
  Li  Li11      1.0  0.743  0.31699999999999995  0.698  1.0000
  Li  Li12      1.0  0.243  0.18300000000000005  0.19799999999999998  1.0000
