data_image0
_chemical_formula_structural       Nb10Pd8P8
_chemical_formula_sum              "Nb10 Pd8 P8"
_cell_length_a       10.3059
_cell_length_b       10.3059
_cell_length_c       3.6372
_cell_angle_alpha    90.0
_cell_angle_beta     90.0
_cell_angle_gamma    90.0

_space_group_name_H-M_alt    "P 1"
_space_group_IT_number       1

loop_
  _space_group_symop_operation_xyz
  'x, y, z'

loop_
  _atom_site_type_symbol
  _atom_site_label
  _atom_site_symmetry_multiplicity
  _atom_site_fract_x
  _atom_site_fract_y
  _atom_site_fract_z
  _atom_site_occupancy
  Nb  Nb1       1.0  0.0  0.0  0.0  1.0000
  Nb  Nb2       1.0  0.5  0.5  0.5  1.0000
  Nb  Nb3       1.0  0.31039  0.37722  0.0  1.0000
  Nb  Nb4       1.0  0.6896100000000001  0.62278  0.0  1.0000
  Nb  Nb5       1.0  0.62278  0.31039  0.0  1.0000
  Nb  Nb6       1.0  0.37722  0.6896100000000001  0.0  1.0000
  Nb  Nb7       1.0  0.8103899999999999  0.87722  0.5  1.0000
  Nb  Nb8       1.0  0.18961  0.12278  0.5  1.0000
  Nb  Nb9       1.0  0.12278  0.8103899999999999  0.5  1.0000
  Nb  Nb10      1.0  0.87722  0.18961  0.5  1.0000
  Pd  Pd1       1.0  0.40535  0.11385  0.0  1.0000
  Pd  Pd2       1.0  0.59465  0.88615  0.0  1.0000
  Pd  Pd3       1.0  0.88615  0.40535  0.0  1.0000
  Pd  Pd4       1.0  0.11385  0.59465  0.0  1.0000
  Pd  Pd5       1.0  0.90535  0.61385  0.5  1.0000
  Pd  Pd6       1.0  0.09465000000000001  0.38615  0.5  1.0000
  Pd  Pd7       1.0  0.38615  0.90535  0.5  1.0000
  Pd  Pd8       1.0  0.61385  0.09465000000000001  0.5  1.0000
  P   P1        1.0  0.0608  0.2434  0.0  1.0000
  P   P2        1.0  0.9392000000000001  0.7565999999999999  0.0  1.0000
  P   P3        1.0  0.7565999999999999  0.0608  0.0  1.0000
  P   P4        1.0  0.2434  0.9392000000000001  0.0  1.0000
  P   P5        1.0  0.5608  0.7434000000000001  0.5  1.0000
  P   P6        1.0  0.4392  0.2566  0.5  1.0000
  P   P7        1.0  0.2566  0.5608  0.5  1.0000
  P   P8        1.0  0.7434000000000001  0.4392  0.5  1.0000
