data_image0
_chemical_formula_structural       BC2P2O8
_chemical_formula_sum              "B1 C2 P2 O8"
_cell_length_a       5.22264
_cell_length_b       5.22264
_cell_length_c       8.26062
_cell_angle_alpha    90.0
_cell_angle_beta     90.0
_cell_angle_gamma    119.99999999999999

_space_group_name_H-M_alt    "P 1"
_space_group_IT_number       1

loop_
  _space_group_symop_operation_xyz
  'x, y, z'

loop_
  _atom_site_type_symbol
  _atom_site_label
  _atom_site_symmetry_multiplicity
  _atom_site_fract_x
  _atom_site_fract_y
  _atom_site_fract_z
  _atom_site_occupancy
  B   B1        1.0  0.0  0.0  0.0  1.0000
  C   C1        1.0  0.3333300000000001  0.6666700000000002  0.6528  1.0000
  C   C2        1.0  0.6666699999999999  0.33332999999999996  0.34719999999999995  1.0000
  P   P1        1.0  0.3333300000000001  0.6666700000000002  0.2551000000000001  1.0000
  P   P2        1.0  0.6666699999999999  0.33332999999999996  0.7448999999999999  1.0000
  O   O1        1.0  0.4366  0.9731  0.229  1.0000
  O   O2        1.0  0.02690000000000003  0.4635  0.229  1.0000
  O   O3        1.0  0.5365000000000001  0.5634000000000001  0.229  1.0000
  O   O4        1.0  0.5634  0.026900000000000035  0.771  1.0000
  O   O5        1.0  0.9731  0.5365000000000001  0.771  1.0000
  O   O6        1.0  0.4635  0.43660000000000004  0.771  1.0000
  O   O7        1.0  0.3333300000000001  0.6666700000000002  0.4302  1.0000
  O   O8        1.0  0.6666699999999999  0.33332999999999996  0.5698  1.0000
