data_image0
_chemical_formula_structural       S8F16C8
_chemical_formula_sum              "S8 F16 C8"
_cell_length_a       7.814
_cell_length_b       5.7599
_cell_length_c       10.8324
_cell_angle_alpha    90.0
_cell_angle_beta     90.0
_cell_angle_gamma    90.0

_space_group_name_H-M_alt    "P 1"
_space_group_IT_number       1

loop_
  _space_group_symop_operation_xyz
  'x, y, z'

loop_
  _atom_site_type_symbol
  _atom_site_label
  _atom_site_symmetry_multiplicity
  _atom_site_fract_x
  _atom_site_fract_y
  _atom_site_fract_z
  _atom_site_occupancy
  S   S1        1.0  0.42270999999999986  0.19177  0.45123  1.0000
  S   S2        1.0  0.07729000000000008  0.80823  0.9512300000000001  1.0000
  S   S3        1.0  0.5772900000000001  0.69177  0.04876999999999999  1.0000
  S   S4        1.0  0.9227099999999998  0.30823  0.54877  1.0000
  S   S5        1.0  0.5772900000000001  0.80823  0.54877  1.0000
  S   S6        1.0  0.9227099999999998  0.19177  0.04876999999999999  1.0000
  S   S7        1.0  0.42270999999999986  0.30823  0.9512300000000001  1.0000
  S   S8        1.0  0.07729000000000008  0.69177  0.45123  1.0000
  F   F1        1.0  0.5156699999999997  0.17951  0.68589  1.0000
  F   F2        1.0  0.9843300000000001  0.8204899999999999  0.18589000000000014  1.0000
  F   F3        1.0  0.4843300000000001  0.6795100000000001  0.8141100000000001  1.0000
  F   F4        1.0  0.01566999999999985  0.32049  0.31411  1.0000
  F   F5        1.0  0.4843300000000001  0.8204899999999999  0.31411  1.0000
  F   F6        1.0  0.01566999999999985  0.17951  0.8141100000000001  1.0000
  F   F7        1.0  0.5156699999999997  0.32049  0.18589000000000014  1.0000
  F   F8        1.0  0.9843300000000001  0.6795100000000001  0.68589  1.0000
  F   F9        1.0  0.29264  0.97801  0.64622  1.0000
  F   F10       1.0  0.20735999999999996  0.02199  0.14622000000000002  1.0000
  F   F11       1.0  0.7073599999999999  0.47801  0.85378  1.0000
  F   F12       1.0  0.7926399999999999  0.52199  0.35378  1.0000
  F   F13       1.0  0.7073599999999999  0.02199  0.35378  1.0000
  F   F14       1.0  0.7926399999999999  0.97801  0.85378  1.0000
  F   F15       1.0  0.29264  0.52199  0.14622000000000002  1.0000
  F   F16       1.0  0.20735999999999996  0.47801  0.64622  1.0000
  C   C1        1.0  0.4432399999999999  0.04649999999999999  0.59781  1.0000
  C   C2        1.0  0.056760000000000026  0.9535  0.09780999999999995  1.0000
  C   C3        1.0  0.55676  0.5465  0.90219  1.0000
  C   C4        1.0  0.9432399999999999  0.4535  0.40219000000000005  1.0000
  C   C5        1.0  0.55676  0.9535  0.40219000000000005  1.0000
  C   C6        1.0  0.9432399999999999  0.04649999999999999  0.90219  1.0000
  C   C7        1.0  0.4432399999999999  0.4535  0.09780999999999995  1.0000
  C   C8        1.0  0.056760000000000026  0.5465  0.59781  1.0000
