data_image0
_chemical_formula_structural       As8Ni14O38
_chemical_formula_sum              "As8 Ni14 O38"
_cell_length_a       12.7021
_cell_length_b       12.702099999999998
_cell_length_c       4.9966
_cell_angle_alpha    90.0
_cell_angle_beta     90.0
_cell_angle_gamma    120.00000000000001

_space_group_name_H-M_alt    "P 1"
_space_group_IT_number       1

loop_
  _space_group_symop_operation_xyz
  'x, y, z'

loop_
  _atom_site_type_symbol
  _atom_site_label
  _atom_site_symmetry_multiplicity
  _atom_site_fract_x
  _atom_site_fract_y
  _atom_site_fract_z
  _atom_site_occupancy
  As  As1       1.0  0.30421  0.1521  0.9829999999999999  1.0000
  As  As2       1.0  0.8479  0.15210999999999997  0.9829999999999999  1.0000
  As  As3       1.0  0.84789  0.69579  0.9829999999999999  1.0000
  As  As4       1.0  0.6957900000000001  0.8479  0.48299999999999993  1.0000
  As  As5       1.0  0.15209999999999999  0.8478899999999999  0.48299999999999993  1.0000
  As  As6       1.0  0.15210999999999997  0.30421  0.48299999999999993  1.0000
  As  As7       1.0  0.3333  0.6667  0.7697  1.0000
  As  As8       1.0  0.6667000000000001  0.33330000000000004  0.26970000000000005  1.0000
  Ni  Ni1       1.0  0.0  0.0  0.16799999999999993  0.4870
  Ni  Ni2       1.0  0.0  0.0  0.6679999999999998  0.4870
  Ni  Ni3       1.0  0.3526  0.42733  0.011200000000000099  1.0000
  Ni  Ni4       1.0  0.57267  0.92527  0.011200000000000099  1.0000
  Ni  Ni5       1.0  0.07472999999999998  0.6474  0.011200000000000099  1.0000
  Ni  Ni6       1.0  0.6474  0.57267  0.5112000000000001  1.0000
  Ni  Ni7       1.0  0.42733  0.07472999999999996  0.5112000000000001  1.0000
  Ni  Ni8       1.0  0.92527  0.3526  0.5112000000000001  1.0000
  Ni  Ni9       1.0  0.57267  0.6474  0.011200000000000099  1.0000
  Ni  Ni10      1.0  0.07472999999999995  0.42733  0.011200000000000099  1.0000
  Ni  Ni11      1.0  0.3526  0.92527  0.011200000000000099  1.0000
  Ni  Ni12      1.0  0.42733  0.3526  0.5112000000000001  1.0000
  Ni  Ni13      1.0  0.92527  0.57267  0.5112000000000001  1.0000
  Ni  Ni14      1.0  0.6474  0.07472999999999996  0.5112000000000001  1.0000
  O   O1        1.0  0.153  0.0765  0.925  1.0000
  O   O2        1.0  0.9235  0.0765  0.925  1.0000
  O   O3        1.0  0.9234999999999999  0.8469999999999999  0.925  1.0000
  O   O4        1.0  0.847  0.9235  0.425  1.0000
  O   O5        1.0  0.07649999999999997  0.9235  0.425  1.0000
  O   O6        1.0  0.0765  0.153  0.425  1.0000
  O   O7        1.0  0.3892  0.1946  0.7029  1.0000
  O   O8        1.0  0.8054  0.1946  0.7029  1.0000
  O   O9        1.0  0.8054  0.6108  0.7029  1.0000
  O   O10       1.0  0.6108  0.8054  0.20290000000000008  1.0000
  O   O11       1.0  0.1946  0.8054  0.20290000000000008  1.0000
  O   O12       1.0  0.1946  0.3892  0.20290000000000008  1.0000
  O   O13       1.0  0.3396  0.2754  0.1634  1.0000
  O   O14       1.0  0.7246  0.06420000000000003  0.1634  1.0000
  O   O15       1.0  0.9358  0.6604  0.1634  1.0000
  O   O16       1.0  0.6604  0.7246  0.6633999999999999  1.0000
  O   O17       1.0  0.2754  0.9358  0.6633999999999999  1.0000
  O   O18       1.0  0.06420000000000003  0.3396  0.6633999999999999  1.0000
  O   O19       1.0  0.7246  0.6604  0.1634  1.0000
  O   O20       1.0  0.9358  0.2754  0.1634  1.0000
  O   O21       1.0  0.3396  0.06420000000000003  0.1634  1.0000
  O   O22       1.0  0.2754  0.3396  0.6633999999999999  1.0000
  O   O23       1.0  0.06420000000000003  0.7246  0.6633999999999999  1.0000
  O   O24       1.0  0.6604  0.9358  0.6633999999999999  1.0000
  O   O25       1.0  0.5248  0.4752  0.8259  1.0000
  O   O26       1.0  0.5247999999999999  0.049600000000000026  0.8259  1.0000
  O   O27       1.0  0.9503999999999999  0.47519999999999996  0.8259  1.0000
  O   O28       1.0  0.47519999999999996  0.5247999999999999  0.32589999999999986  1.0000
  O   O29       1.0  0.4752  0.9503999999999999  0.32589999999999986  1.0000
  O   O30       1.0  0.04960000000000003  0.5248  0.32589999999999986  1.0000
  O   O31       1.0  0.4046  0.5954  0.8580000000000001  1.0000
  O   O32       1.0  0.40459999999999996  0.8091999999999999  0.8580000000000001  1.0000
  O   O33       1.0  0.19080000000000005  0.5953999999999999  0.8580000000000001  1.0000
  O   O34       1.0  0.5953999999999999  0.40459999999999996  0.3580000000000001  1.0000
  O   O35       1.0  0.5954  0.19080000000000003  0.3580000000000001  1.0000
  O   O36       1.0  0.8091999999999999  0.40459999999999996  0.3580000000000001  1.0000
  O   O37       1.0  0.6667  0.3333  0.938  1.0000
  O   O38       1.0  0.3333  0.6667000000000001  0.4379999999999999  1.0000
