data_image0
_chemical_formula_structural       Au4Br12Cs4
_chemical_formula_sum              "Au4 Br12 Cs4"
_cell_length_a       7.7592
_cell_length_b       7.7592
_cell_length_c       11.3079
_cell_angle_alpha    90.0
_cell_angle_beta     90.0
_cell_angle_gamma    90.0

_space_group_name_H-M_alt    "P 1"
_space_group_IT_number       1

loop_
  _space_group_symop_operation_xyz
  'x, y, z'

loop_
  _atom_site_type_symbol
  _atom_site_label
  _atom_site_symmetry_multiplicity
  _atom_site_fract_x
  _atom_site_fract_y
  _atom_site_fract_z
  _atom_site_occupancy
  Au  Au1       1.0  0.0  0.0  0.0  1.0000
  Au  Au2       1.0  0.5  0.5  0.5  1.0000
  Au  Au3       1.0  0.5  0.5  0.0  1.0000
  Au  Au4       1.0  0.0  0.0  0.5  1.0000
  Br  Br1       1.0  0.222  0.222  0.0  1.0000
  Br  Br2       1.0  0.778  0.778  0.0  1.0000
  Br  Br3       1.0  0.778  0.222  0.0  1.0000
  Br  Br4       1.0  0.222  0.778  0.0  1.0000
  Br  Br5       1.0  0.722  0.722  0.5  1.0000
  Br  Br6       1.0  0.278  0.278  0.5  1.0000
  Br  Br7       1.0  0.278  0.722  0.5  1.0000
  Br  Br8       1.0  0.722  0.278  0.5  1.0000
  Br  Br9       1.0  0.5  0.5  0.21219999999999997  1.0000
  Br  Br10      1.0  0.5  0.5  0.7878000000000001  1.0000
  Br  Br11      1.0  0.0  0.0  0.7121999999999998  1.0000
  Br  Br12      1.0  0.0  0.0  0.28780000000000006  1.0000
  Cs  Cs1       1.0  0.0  0.5  0.25  1.0000
  Cs  Cs2       1.0  0.0  0.5  0.7499999999999999  1.0000
  Cs  Cs3       1.0  0.5  0.0  0.25  1.0000
  Cs  Cs4       1.0  0.5  0.0  0.7499999999999999  1.0000
