data_image0
_chemical_formula_structural       Tl2Ta2Ge6O18
_chemical_formula_sum              "Tl2 Ta2 Ge6 O18"
_cell_length_a       7.036
_cell_length_b       7.035999999999999
_cell_length_c       10.124
_cell_angle_alpha    90.0
_cell_angle_beta     90.0
_cell_angle_gamma    119.99999999999999

_space_group_name_H-M_alt    "P 1"
_space_group_IT_number       1

loop_
  _space_group_symop_operation_xyz
  'x, y, z'

loop_
  _atom_site_type_symbol
  _atom_site_label
  _atom_site_symmetry_multiplicity
  _atom_site_fract_x
  _atom_site_fract_y
  _atom_site_fract_z
  _atom_site_occupancy
  Tl  Tl1       1.0  0.6667000000000001  0.3333  0.0  1.0000
  Tl  Tl2       1.0  0.6667000000000001  0.3333  0.5  1.0000
  Ta  Ta1       1.0  0.3333  0.6667  0.0  1.0000
  Ta  Ta2       1.0  0.3333  0.6667  0.5  1.0000
  Ge  Ge1       1.0  0.071  0.289  0.25  1.0000
  Ge  Ge2       1.0  0.711  0.7819999999999999  0.25  1.0000
  Ge  Ge3       1.0  0.21799999999999997  0.929  0.25  1.0000
  Ge  Ge4       1.0  0.7110000000000001  0.929  0.75  1.0000
  Ge  Ge5       1.0  0.21799999999999997  0.289  0.75  1.0000
  Ge  Ge6       1.0  0.07099999999999995  0.7819999999999999  0.75  1.0000
  O   O1        1.0  0.253  0.19299999999999995  0.25  1.0000
  O   O2        1.0  0.807  0.06000000000000002  0.25  1.0000
  O   O3        1.0  0.94  0.7469999999999999  0.25  1.0000
  O   O4        1.0  0.807  0.7469999999999999  0.75  1.0000
  O   O5        1.0  0.94  0.19299999999999995  0.75  1.0000
  O   O6        1.0  0.253  0.06000000000000002  0.75  1.0000
  O   O7        1.0  0.09800000000000002  0.44  0.11  1.0000
  O   O8        1.0  0.5599999999999999  0.6579999999999999  0.11  1.0000
  O   O9        1.0  0.34199999999999997  0.902  0.11  1.0000
  O   O10       1.0  0.09800000000000002  0.44  0.39000000000000007  1.0000
  O   O11       1.0  0.5599999999999999  0.6579999999999999  0.39000000000000007  1.0000
  O   O12       1.0  0.34199999999999997  0.902  0.39000000000000007  1.0000
  O   O13       1.0  0.56  0.902  0.61  1.0000
  O   O14       1.0  0.34199999999999997  0.44  0.61  1.0000
  O   O15       1.0  0.09799999999999995  0.6579999999999999  0.61  1.0000
  O   O16       1.0  0.56  0.902  0.89  1.0000
  O   O17       1.0  0.34199999999999997  0.44  0.89  1.0000
  O   O18       1.0  0.09799999999999995  0.6579999999999999  0.89  1.0000
