data_image0
_chemical_formula_structural       Hf4N8F24N4
_chemical_formula_sum              "Hf4 N12 F24"
_cell_length_a       9.4144
_cell_length_b       9.4144
_cell_length_c       9.4144
_cell_angle_alpha    90.0
_cell_angle_beta     90.0
_cell_angle_gamma    90.0

_space_group_name_H-M_alt    "P 1"
_space_group_IT_number       1

loop_
  _space_group_symop_operation_xyz
  'x, y, z'

loop_
  _atom_site_type_symbol
  _atom_site_label
  _atom_site_symmetry_multiplicity
  _atom_site_fract_x
  _atom_site_fract_y
  _atom_site_fract_z
  _atom_site_occupancy
  Hf  Hf1       1.0  0.0  0.0  0.0  1.0000
  Hf  Hf2       1.0  0.0  0.5  0.5  1.0000
  Hf  Hf3       1.0  0.5  0.0  0.5  1.0000
  Hf  Hf4       1.0  0.5  0.5  0.0  1.0000
  N   N1        1.0  0.25  0.25  0.25  1.0000
  N   N2        1.0  0.75  0.75  0.25  1.0000
  N   N3        1.0  0.75  0.25  0.75  1.0000
  N   N4        1.0  0.25  0.75  0.75  1.0000
  N   N5        1.0  0.25  0.25  0.75  1.0000
  N   N6        1.0  0.75  0.75  0.75  1.0000
  N   N7        1.0  0.25  0.75  0.25  1.0000
  N   N8        1.0  0.75  0.25  0.25  1.0000
  F   F1        1.0  0.0  0.7921000000000002  0.0  0.8300
  F   F2        1.0  0.0  0.20789999999999986  0.0  0.8300
  F   F3        1.0  0.0  0.0  0.7921000000000002  0.8300
  F   F4        1.0  0.0  0.0  0.20789999999999986  0.8300
  F   F5        1.0  0.7921000000000002  0.0  0.0  0.8300
  F   F6        1.0  0.20789999999999986  0.0  0.0  0.8300
  F   F7        1.0  0.0  0.2921  0.5  0.8300
  F   F8        1.0  0.0  0.7078999999999999  0.5  0.8300
  F   F9        1.0  0.0  0.5  0.2921  0.8300
  F   F10       1.0  0.0  0.5  0.7078999999999999  0.8300
  F   F11       1.0  0.7921000000000002  0.5  0.5  0.8300
  F   F12       1.0  0.20789999999999986  0.5  0.5  0.8300
  F   F13       1.0  0.5  0.7921000000000002  0.5  0.8300
  F   F14       1.0  0.5  0.20789999999999986  0.5  0.8300
  F   F15       1.0  0.5  0.0  0.2921  0.8300
  F   F16       1.0  0.5  0.0  0.7078999999999999  0.8300
  F   F17       1.0  0.2921  0.0  0.5  0.8300
  F   F18       1.0  0.7078999999999999  0.0  0.5  0.8300
  F   F19       1.0  0.5  0.2921  0.0  0.8300
  F   F20       1.0  0.5  0.7078999999999999  0.0  0.8300
  F   F21       1.0  0.5  0.5  0.7921000000000002  0.8300
  F   F22       1.0  0.5  0.5  0.20789999999999986  0.8300
  F   F23       1.0  0.2921  0.5  0.0  0.8300
  F   F24       1.0  0.7078999999999999  0.5  0.0  0.8300
  N   N9        1.0  0.5  0.5  0.5  1.0000
  N   N10       1.0  0.5  0.0  0.0  1.0000
  N   N11       1.0  0.0  0.5  0.0  1.0000
  N   N12       1.0  0.0  0.0  0.5  1.0000
  O   O1        1.0  0.0  0.7921000000000002  0.0  0.1700
  O   O2        1.0  0.0  0.20789999999999986  0.0  0.1700
  O   O3        1.0  0.0  0.0  0.7921000000000002  0.1700
  O   O4        1.0  0.0  0.0  0.20789999999999986  0.1700
  O   O5        1.0  0.7921000000000002  0.0  0.0  0.1700
  O   O6        1.0  0.20789999999999986  0.0  0.0  0.1700
  O   O7        1.0  0.0  0.2921  0.5  0.1700
  O   O8        1.0  0.0  0.7078999999999999  0.5  0.1700
  O   O9        1.0  0.0  0.5  0.2921  0.1700
  O   O10       1.0  0.0  0.5  0.7078999999999999  0.1700
  O   O11       1.0  0.7921000000000002  0.5  0.5  0.1700
  O   O12       1.0  0.20789999999999986  0.5  0.5  0.1700
  O   O13       1.0  0.5  0.7921000000000002  0.5  0.1700
  O   O14       1.0  0.5  0.20789999999999986  0.5  0.1700
  O   O15       1.0  0.5  0.0  0.2921  0.1700
  O   O16       1.0  0.5  0.0  0.7078999999999999  0.1700
  O   O17       1.0  0.2921  0.0  0.5  0.1700
  O   O18       1.0  0.7078999999999999  0.0  0.5  0.1700
  O   O19       1.0  0.5  0.2921  0.0  0.1700
  O   O20       1.0  0.5  0.7078999999999999  0.0  0.1700
  O   O21       1.0  0.5  0.5  0.7921000000000002  0.1700
  O   O22       1.0  0.5  0.5  0.20789999999999986  0.1700
  O   O23       1.0  0.2921  0.5  0.0  0.1700
  O   O24       1.0  0.7078999999999999  0.5  0.0  0.1700
