data_image0
_chemical_formula_structural       Au20In4K12
_chemical_formula_sum              "Au20 In4 K12"
_cell_length_a       5.5615
_cell_length_b       19.645
_cell_length_c       8.5024
_cell_angle_alpha    90.0
_cell_angle_beta     90.0
_cell_angle_gamma    90.0

_space_group_name_H-M_alt    "P 1"
_space_group_IT_number       1

loop_
  _space_group_symop_operation_xyz
  'x, y, z'

loop_
  _atom_site_type_symbol
  _atom_site_label
  _atom_site_symmetry_multiplicity
  _atom_site_fract_x
  _atom_site_fract_y
  _atom_site_fract_z
  _atom_site_occupancy
  Au  Au1       1.0  0.0  0.14521  0.03493  1.0000
  Au  Au2       1.0  0.0  0.35479  0.03493  1.0000
  Au  Au3       1.0  0.0  0.6452100000000001  0.96507  1.0000
  Au  Au4       1.0  0.0  0.8547899999999998  0.96507  1.0000
  Au  Au5       1.0  0.49999999999999994  0.6452100000000001  0.53493  1.0000
  Au  Au6       1.0  0.49999999999999994  0.8547899999999998  0.53493  1.0000
  Au  Au7       1.0  0.49999999999999994  0.14521  0.46507  1.0000
  Au  Au8       1.0  0.49999999999999994  0.35479  0.46507  1.0000
  Au  Au9       1.0  0.24999999999999994  0.06552  0.25  1.0000
  Au  Au10      1.0  0.75  0.43448  0.25  1.0000
  Au  Au11      1.0  0.75  0.56552  0.75  1.0000
  Au  Au12      1.0  0.24999999999999994  0.9344799999999999  0.75  1.0000
  Au  Au13      1.0  0.75  0.9344799999999999  0.75  1.0000
  Au  Au14      1.0  0.24999999999999994  0.56552  0.75  1.0000
  Au  Au15      1.0  0.24999999999999994  0.43448  0.25  1.0000
  Au  Au16      1.0  0.75  0.06552  0.25  1.0000
  Au  Au17      1.0  0.0  0.0  0.0  1.0000
  Au  Au18      1.0  0.0  0.5  0.0  1.0000
  Au  Au19      1.0  0.49999999999999994  0.5  0.5  1.0000
  Au  Au20      1.0  0.49999999999999994  0.0  0.5  1.0000
  In  In1       1.0  0.0  0.25  0.8353  1.0000
  In  In2       1.0  0.0  0.75  0.16469999999999996  1.0000
  In  In3       1.0  0.49999999999999994  0.75  0.33530000000000015  1.0000
  In  In4       1.0  0.49999999999999994  0.25  0.6647  1.0000
  K   K1        1.0  0.0  0.0879  0.6253  1.0000
  K   K2        1.0  0.0  0.4121  0.6253  1.0000
  K   K3        1.0  0.0  0.5879  0.37470000000000003  1.0000
  K   K4        1.0  0.0  0.9121000000000001  0.37470000000000003  1.0000
  K   K5        1.0  0.49999999999999994  0.5879  0.12529999999999997  1.0000
  K   K6        1.0  0.49999999999999994  0.9121000000000001  0.12529999999999997  1.0000
  K   K7        1.0  0.49999999999999994  0.0879  0.8747  1.0000
  K   K8        1.0  0.49999999999999994  0.4121  0.8747  1.0000
  K   K9        1.0  0.0  0.25  0.3777  1.0000
  K   K10       1.0  0.0  0.75  0.6223000000000001  1.0000
  K   K11       1.0  0.49999999999999994  0.75  0.8776999999999999  1.0000
  K   K12       1.0  0.49999999999999994  0.25  0.12230000000000003  1.0000
