data_image0
_chemical_formula_structural       Sn12Ag24K8S40
_chemical_formula_sum              "Sn12 Ag24 K8 S40"
_cell_length_a       24.0201
_cell_length_b       6.4017
_cell_length_c       13.3056
_cell_angle_alpha    90.0
_cell_angle_beta     90.0
_cell_angle_gamma    90.0

_space_group_name_H-M_alt    "P 1"
_space_group_IT_number       1

loop_
  _space_group_symop_operation_xyz
  'x, y, z'

loop_
  _atom_site_type_symbol
  _atom_site_label
  _atom_site_symmetry_multiplicity
  _atom_site_fract_x
  _atom_site_fract_y
  _atom_site_fract_z
  _atom_site_occupancy
  Sn  Sn1       1.0  0.29926  0.04815  0.0583  1.0000
  Sn  Sn2       1.0  0.20073999999999997  0.4518499999999999  0.5583  1.0000
  Sn  Sn3       1.0  0.7007399999999999  0.04815  0.44170000000000004  1.0000
  Sn  Sn4       1.0  0.7992600000000001  0.4518499999999999  0.9417  1.0000
  Sn  Sn5       1.0  0.7007399999999999  0.9518499999999999  0.9417  1.0000
  Sn  Sn6       1.0  0.7992600000000001  0.54815  0.44170000000000004  1.0000
  Sn  Sn7       1.0  0.29926  0.9518499999999999  0.5583  1.0000
  Sn  Sn8       1.0  0.20073999999999997  0.54815  0.0583  1.0000
  Sn  Sn9       1.0  0.5  0.52663  0.25  1.0000
  Sn  Sn10      1.0  0.0  0.97337  0.75  1.0000
  Sn  Sn11      1.0  0.5  0.47336999999999996  0.75  1.0000
  Sn  Sn12      1.0  0.0  0.02662999999999993  0.25  1.0000
  Ag  Ag1       1.0  0.4013  0.95312  0.79285  1.0000
  Ag  Ag2       1.0  0.09870000000000002  0.54688  0.29285  1.0000
  Ag  Ag3       1.0  0.5987  0.95312  0.7071500000000001  1.0000
  Ag  Ag4       1.0  0.9013  0.54688  0.20715  1.0000
  Ag  Ag5       1.0  0.5987  0.04688000000000003  0.20715  1.0000
  Ag  Ag6       1.0  0.9013  0.45311999999999997  0.7071500000000001  1.0000
  Ag  Ag7       1.0  0.4013  0.04688000000000003  0.29285  1.0000
  Ag  Ag8       1.0  0.09870000000000002  0.45311999999999997  0.79285  1.0000
  Ag  Ag9       1.0  0.46116  0.9285399999999998  0.5876299999999999  1.0000
  Ag  Ag10      1.0  0.038839999999999986  0.57146  0.08762999999999993  1.0000
  Ag  Ag11      1.0  0.53884  0.9285399999999998  0.9123700000000001  1.0000
  Ag  Ag12      1.0  0.9611600000000001  0.57146  0.41237000000000007  1.0000
  Ag  Ag13      1.0  0.53884  0.07146000000000007  0.41237000000000007  1.0000
  Ag  Ag14      1.0  0.9611600000000001  0.4285399999999999  0.9123700000000001  1.0000
  Ag  Ag15      1.0  0.46116  0.07146000000000007  0.08762999999999993  1.0000
  Ag  Ag16      1.0  0.038839999999999986  0.4285399999999999  0.5876299999999999  1.0000
  Ag  Ag17      1.0  0.40431  0.51443  0.027610000000000006  1.0000
  Ag  Ag18      1.0  0.09569  0.98557  0.52761  1.0000
  Ag  Ag19      1.0  0.59569  0.51443  0.47239  1.0000
  Ag  Ag20      1.0  0.9043100000000001  0.98557  0.97239  1.0000
  Ag  Ag21      1.0  0.59569  0.48556999999999995  0.97239  1.0000
  Ag  Ag22      1.0  0.9043100000000001  0.014429999999999943  0.47239  1.0000
  Ag  Ag23      1.0  0.40431  0.48556999999999995  0.52761  1.0000
  Ag  Ag24      1.0  0.09569  0.014429999999999943  0.027610000000000006  1.0000
  K   K1        1.0  0.32101  0.42549999999999993  0.78866  1.0000
  K   K2        1.0  0.17899  0.07450000000000005  0.28866  1.0000
  K   K3        1.0  0.67899  0.42549999999999993  0.71134  1.0000
  K   K4        1.0  0.8210100000000001  0.07450000000000005  0.21134  1.0000
  K   K5        1.0  0.67899  0.5745  0.21134  1.0000
  K   K6        1.0  0.8210100000000001  0.9254999999999999  0.71134  1.0000
  K   K7        1.0  0.32101  0.5745  0.28866  1.0000
  K   K8        1.0  0.17899  0.9254999999999999  0.78866  1.0000
  S   S1        1.0  0.30322  0.0919  0.23129  1.0000
  S   S2        1.0  0.19678  0.4081  0.7312900000000001  1.0000
  S   S3        1.0  0.69678  0.0919  0.26871  1.0000
  S   S4        1.0  0.80322  0.4081  0.76871  1.0000
  S   S5        1.0  0.69678  0.9080999999999999  0.76871  1.0000
  S   S6        1.0  0.80322  0.5919  0.26871  1.0000
  S   S7        1.0  0.30322  0.9080999999999999  0.7312900000000001  1.0000
  S   S8        1.0  0.19678  0.5919  0.23129  1.0000
  S   S9        1.0  0.2117  0.1927  0.99591  1.0000
  S   S10       1.0  0.2883  0.3073  0.4959100000000001  1.0000
  S   S11       1.0  0.7883  0.1927  0.50409  1.0000
  S   S12       1.0  0.7117  0.3073  0.00409  1.0000
  S   S13       1.0  0.7883  0.8072999999999999  0.00409  1.0000
  S   S14       1.0  0.7117  0.6927  0.50409  1.0000
  S   S15       1.0  0.2117  0.8072999999999999  0.4959100000000001  1.0000
  S   S16       1.0  0.2883  0.6927  0.99591  1.0000
  S   S17       1.0  0.45995  0.3091999999999999  0.37805000000000005  1.0000
  S   S18       1.0  0.040049999999999975  0.19080000000000005  0.87805  1.0000
  S   S19       1.0  0.5400499999999999  0.3091999999999999  0.12194999999999995  1.0000
  S   S20       1.0  0.9599500000000001  0.19080000000000005  0.62195  1.0000
  S   S21       1.0  0.5400499999999999  0.6908000000000001  0.62195  1.0000
  S   S22       1.0  0.9599500000000001  0.8091999999999999  0.12194999999999995  1.0000
  S   S23       1.0  0.45995  0.6908000000000001  0.87805  1.0000
  S   S24       1.0  0.040049999999999975  0.8091999999999999  0.37805000000000005  1.0000
  S   S25       1.0  0.3791900000000001  0.16179999999999997  0.9682300000000001  1.0000
  S   S26       1.0  0.12080999999999992  0.33820000000000006  0.46823  1.0000
  S   S27       1.0  0.6208099999999999  0.16179999999999997  0.53177  1.0000
  S   S28       1.0  0.8791900000000002  0.33820000000000006  0.03177  1.0000
  S   S29       1.0  0.6208099999999999  0.8382  0.03177  1.0000
  S   S30       1.0  0.8791900000000002  0.6617999999999999  0.53177  1.0000
  S   S31       1.0  0.3791900000000001  0.8382  0.46823  1.0000
  S   S32       1.0  0.12080999999999992  0.6617999999999999  0.9682300000000001  1.0000
  S   S33       1.0  0.57005  0.7355  0.32694  1.0000
  S   S34       1.0  0.92995  0.7644999999999998  0.82694  1.0000
  S   S35       1.0  0.42995000000000005  0.7355  0.17306  1.0000
  S   S36       1.0  0.07004999999999995  0.7644999999999998  0.67306  1.0000
  S   S37       1.0  0.42995000000000005  0.2644999999999999  0.67306  1.0000
  S   S38       1.0  0.07004999999999995  0.23550000000000004  0.17306  1.0000
  S   S39       1.0  0.57005  0.2644999999999999  0.82694  1.0000
  S   S40       1.0  0.92995  0.23550000000000004  0.32694  1.0000
