data_image0
_chemical_formula_structural       Cd8P16
_chemical_formula_sum              "Cd8 P16"
_cell_length_a       5.283
_cell_length_b       5.283
_cell_length_c       19.808
_cell_angle_alpha    90.0
_cell_angle_beta     90.0
_cell_angle_gamma    90.0

_space_group_name_H-M_alt    "P 1"
_space_group_IT_number       1

loop_
  _space_group_symop_operation_xyz
  'x, y, z'

loop_
  _atom_site_type_symbol
  _atom_site_label
  _atom_site_symmetry_multiplicity
  _atom_site_fract_x
  _atom_site_fract_y
  _atom_site_fract_z
  _atom_site_occupancy
  Cd  Cd1       1.0  0.6536  0.8743  0.2022  1.0000
  Cd  Cd2       1.0  0.34640000000000004  0.12570000000000014  0.7021999999999999  1.0000
  Cd  Cd3       1.0  0.37429999999999997  0.8464  0.4522  1.0000
  Cd  Cd4       1.0  0.6257  0.1536  0.9521999999999999  1.0000
  Cd  Cd5       1.0  0.12570000000000014  0.34640000000000004  0.2978  1.0000
  Cd  Cd6       1.0  0.8743  0.6536  0.7978000000000002  1.0000
  Cd  Cd7       1.0  0.8464  0.37429999999999997  0.5478000000000002  1.0000
  Cd  Cd8       1.0  0.1536  0.6257  0.04780000000000001  1.0000
  P   P1        1.0  0.30720000000000014  0.2122  0.18570000000000003  1.0000
  P   P2        1.0  0.6927999999999999  0.7878000000000001  0.6857000000000001  1.0000
  P   P3        1.0  0.7121999999999999  0.19279999999999986  0.43570000000000003  1.0000
  P   P4        1.0  0.2878  0.8072000000000001  0.9357  1.0000
  P   P5        1.0  0.7878000000000001  0.6927999999999999  0.3143000000000001  1.0000
  P   P6        1.0  0.2122  0.30720000000000014  0.8143  1.0000
  P   P7        1.0  0.19279999999999986  0.7121999999999999  0.5643  1.0000
  P   P8        1.0  0.8072000000000001  0.2878  0.0643  1.0000
  P   P9        1.0  0.47630000000000017  0.5214  0.12400000000000001  1.0000
  P   P10       1.0  0.5236999999999999  0.4786000000000001  0.624  1.0000
  P   P11       1.0  0.021399999999999975  0.023699999999999943  0.374  1.0000
  P   P12       1.0  0.9786  0.9763000000000001  0.874  1.0000
  P   P13       1.0  0.4786000000000001  0.5236999999999999  0.37600000000000006  1.0000
  P   P14       1.0  0.5214  0.47630000000000017  0.876  1.0000
  P   P15       1.0  0.023699999999999943  0.021399999999999975  0.6260000000000001  1.0000
  P   P16       1.0  0.9763000000000001  0.9786  0.126  1.0000
