data_image0
_chemical_formula_structural       Mo4Sb8
_chemical_formula_sum              "Mo4 Sb8"
_cell_length_a       10.1222
_cell_length_b       3.608
_cell_length_c       8.1884
_cell_angle_alpha    90.0
_cell_angle_beta     120.23
_cell_angle_gamma    90.0

_space_group_name_H-M_alt    "P 1"
_space_group_IT_number       1

loop_
  _space_group_symop_operation_xyz
  'x, y, z'

loop_
  _atom_site_type_symbol
  _atom_site_label
  _atom_site_symmetry_multiplicity
  _atom_site_fract_x
  _atom_site_fract_y
  _atom_site_fract_z
  _atom_site_occupancy
  Mo  Mo1       1.0  0.3480700000000001  0.5  0.30893  0.6030
  Mo  Mo2       1.0  0.6519299999999999  0.5  0.6910700000000001  0.6030
  Mo  Mo3       1.0  0.8480700000000001  0.0  0.30893  0.6030
  Mo  Mo4       1.0  0.15192999999999995  0.0  0.6910700000000001  0.6030
  Sb  Sb1       1.0  0.09496  0.5  0.38822  1.0000
  Sb  Sb2       1.0  0.90504  0.5  0.61178  1.0000
  Sb  Sb3       1.0  0.5949600000000002  0.0  0.38822  1.0000
  Sb  Sb4       1.0  0.40504  0.0  0.61178  1.0000
  Sb  Sb5       1.0  0.15008  0.0  0.03813  1.0000
  Sb  Sb6       1.0  0.8499200000000001  0.0  0.96187  1.0000
  Sb  Sb7       1.0  0.65008  0.5  0.03813  1.0000
  Sb  Sb8       1.0  0.34992  0.5  0.96187  1.0000
  Ti  Ti1       1.0  0.3480700000000001  0.5  0.30893  0.3970
  Ti  Ti2       1.0  0.6519299999999999  0.5  0.6910700000000001  0.3970
  Ti  Ti3       1.0  0.8480700000000001  0.0  0.30893  0.3970
  Ti  Ti4       1.0  0.15192999999999995  0.0  0.6910700000000001  0.3970
