data_image0
_chemical_formula_structural       Sr28Cu176As92
_chemical_formula_sum              "Sr28 Cu176 As92"
_cell_length_a       16.7467
_cell_length_b       16.7467
_cell_length_c       16.7467
_cell_angle_alpha    90.0
_cell_angle_beta     90.0
_cell_angle_gamma    90.0

_space_group_name_H-M_alt    "P 1"
_space_group_IT_number       1

loop_
  _space_group_symop_operation_xyz
  'x, y, z'

loop_
  _atom_site_type_symbol
  _atom_site_label
  _atom_site_symmetry_multiplicity
  _atom_site_fract_x
  _atom_site_fract_y
  _atom_site_fract_z
  _atom_site_occupancy
  Sr  Sr1       1.0  0.24362000000000003  0.0  0.0  1.0000
  Sr  Sr2       1.0  0.0  0.24362000000000003  0.0  1.0000
  Sr  Sr3       1.0  0.0  0.0  0.24362000000000003  1.0000
  Sr  Sr4       1.0  0.0  0.0  0.7563799999999999  1.0000
  Sr  Sr5       1.0  0.7563799999999999  0.0  0.0  1.0000
  Sr  Sr6       1.0  0.0  0.7563799999999999  0.0  1.0000
  Sr  Sr7       1.0  0.24362000000000003  0.5  0.5  1.0000
  Sr  Sr8       1.0  0.0  0.7436200000000001  0.5  1.0000
  Sr  Sr9       1.0  0.0  0.5  0.7436200000000001  1.0000
  Sr  Sr10      1.0  0.0  0.5  0.25637999999999994  1.0000
  Sr  Sr11      1.0  0.7563799999999999  0.5  0.5  1.0000
  Sr  Sr12      1.0  0.0  0.25637999999999994  0.5  1.0000
  Sr  Sr13      1.0  0.7436200000000001  0.0  0.5  1.0000
  Sr  Sr14      1.0  0.5  0.24362000000000003  0.5  1.0000
  Sr  Sr15      1.0  0.5  0.0  0.7436200000000001  1.0000
  Sr  Sr16      1.0  0.5  0.0  0.25637999999999994  1.0000
  Sr  Sr17      1.0  0.25637999999999994  0.0  0.5  1.0000
  Sr  Sr18      1.0  0.5  0.7563799999999999  0.5  1.0000
  Sr  Sr19      1.0  0.7436200000000001  0.5  0.0  1.0000
  Sr  Sr20      1.0  0.5  0.7436200000000001  0.0  1.0000
  Sr  Sr21      1.0  0.5  0.5  0.24362000000000003  1.0000
  Sr  Sr22      1.0  0.5  0.5  0.7563799999999999  1.0000
  Sr  Sr23      1.0  0.25637999999999994  0.5  0.0  1.0000
  Sr  Sr24      1.0  0.5  0.25637999999999994  0.0  1.0000
  Sr  Sr25      1.0  0.0  0.0  0.0  1.0000
  Sr  Sr26      1.0  0.0  0.5  0.5  1.0000
  Sr  Sr27      1.0  0.5  0.0  0.5  1.0000
  Sr  Sr28      1.0  0.5  0.5  0.0  1.0000
  Cu  Cu1       1.0  0.1369  0.1369  0.25445  1.0000
  Cu  Cu2       1.0  0.25445  0.1369  0.1369  1.0000
  Cu  Cu3       1.0  0.1369  0.25445  0.1369  1.0000
  Cu  Cu4       1.0  0.1369  0.1369  0.7455499999999999  1.0000
  Cu  Cu5       1.0  0.25445  0.1369  0.8631  1.0000
  Cu  Cu6       1.0  0.1369  0.25445  0.8631  1.0000
  Cu  Cu7       1.0  0.8631  0.1369  0.25445  1.0000
  Cu  Cu8       1.0  0.7455499999999999  0.1369  0.1369  1.0000
  Cu  Cu9       1.0  0.8631  0.25445  0.1369  1.0000
  Cu  Cu10      1.0  0.8631  0.1369  0.7455499999999999  1.0000
  Cu  Cu11      1.0  0.7455499999999999  0.1369  0.8631  1.0000
  Cu  Cu12      1.0  0.8631  0.25445  0.8631  1.0000
  Cu  Cu13      1.0  0.1369  0.8631  0.25445  1.0000
  Cu  Cu14      1.0  0.1369  0.7455499999999999  0.1369  1.0000
  Cu  Cu15      1.0  0.25445  0.8631  0.1369  1.0000
  Cu  Cu16      1.0  0.1369  0.8631  0.7455499999999999  1.0000
  Cu  Cu17      1.0  0.1369  0.7455499999999999  0.8631  1.0000
  Cu  Cu18      1.0  0.25445  0.8631  0.8631  1.0000
  Cu  Cu19      1.0  0.8631  0.8631  0.7455499999999999  1.0000
  Cu  Cu20      1.0  0.7455499999999999  0.8631  0.8631  1.0000
  Cu  Cu21      1.0  0.8631  0.7455499999999999  0.8631  1.0000
  Cu  Cu22      1.0  0.8631  0.8631  0.25445  1.0000
  Cu  Cu23      1.0  0.7455499999999999  0.8631  0.1369  1.0000
  Cu  Cu24      1.0  0.8631  0.7455499999999999  0.1369  1.0000
  Cu  Cu25      1.0  0.1369  0.6369  0.7544500000000001  1.0000
  Cu  Cu26      1.0  0.25445  0.6369  0.6369  1.0000
  Cu  Cu27      1.0  0.1369  0.7544500000000001  0.6369  1.0000
  Cu  Cu28      1.0  0.1369  0.6369  0.24555000000000002  1.0000
  Cu  Cu29      1.0  0.25445  0.6369  0.3631  1.0000
  Cu  Cu30      1.0  0.1369  0.7544500000000001  0.3631  1.0000
  Cu  Cu31      1.0  0.8631  0.6369  0.7544500000000001  1.0000
  Cu  Cu32      1.0  0.7455499999999999  0.6369  0.6369  1.0000
  Cu  Cu33      1.0  0.8631  0.7544500000000001  0.6369  1.0000
  Cu  Cu34      1.0  0.8631  0.6369  0.24555000000000002  1.0000
  Cu  Cu35      1.0  0.7455499999999999  0.6369  0.3631  1.0000
  Cu  Cu36      1.0  0.8631  0.7544500000000001  0.3631  1.0000
  Cu  Cu37      1.0  0.1369  0.3631  0.7544500000000001  1.0000
  Cu  Cu38      1.0  0.1369  0.24555000000000002  0.6369  1.0000
  Cu  Cu39      1.0  0.25445  0.3631  0.6369  1.0000
  Cu  Cu40      1.0  0.1369  0.3631  0.24555000000000002  1.0000
  Cu  Cu41      1.0  0.1369  0.24555000000000002  0.3631  1.0000
  Cu  Cu42      1.0  0.25445  0.3631  0.3631  1.0000
  Cu  Cu43      1.0  0.8631  0.3631  0.24555000000000002  1.0000
  Cu  Cu44      1.0  0.7455499999999999  0.3631  0.3631  1.0000
  Cu  Cu45      1.0  0.8631  0.24555000000000002  0.3631  1.0000
  Cu  Cu46      1.0  0.8631  0.3631  0.7544500000000001  1.0000
  Cu  Cu47      1.0  0.7455499999999999  0.3631  0.6369  1.0000
  Cu  Cu48      1.0  0.8631  0.24555000000000002  0.6369  1.0000
  Cu  Cu49      1.0  0.6369  0.1369  0.7544500000000001  1.0000
  Cu  Cu50      1.0  0.7544500000000001  0.1369  0.6369  1.0000
  Cu  Cu51      1.0  0.6369  0.25445  0.6369  1.0000
  Cu  Cu52      1.0  0.6369  0.1369  0.24555000000000002  1.0000
  Cu  Cu53      1.0  0.7544500000000001  0.1369  0.3631  1.0000
  Cu  Cu54      1.0  0.6369  0.25445  0.3631  1.0000
  Cu  Cu55      1.0  0.3631  0.1369  0.7544500000000001  1.0000
  Cu  Cu56      1.0  0.24555000000000002  0.1369  0.6369  1.0000
  Cu  Cu57      1.0  0.3631  0.25445  0.6369  1.0000
  Cu  Cu58      1.0  0.3631  0.1369  0.24555000000000002  1.0000
  Cu  Cu59      1.0  0.24555000000000002  0.1369  0.3631  1.0000
  Cu  Cu60      1.0  0.3631  0.25445  0.3631  1.0000
  Cu  Cu61      1.0  0.6369  0.8631  0.7544500000000001  1.0000
  Cu  Cu62      1.0  0.6369  0.7455499999999999  0.6369  1.0000
  Cu  Cu63      1.0  0.7544500000000001  0.8631  0.6369  1.0000
  Cu  Cu64      1.0  0.6369  0.8631  0.24555000000000002  1.0000
  Cu  Cu65      1.0  0.6369  0.7455499999999999  0.3631  1.0000
  Cu  Cu66      1.0  0.7544500000000001  0.8631  0.3631  1.0000
  Cu  Cu67      1.0  0.3631  0.8631  0.24555000000000002  1.0000
  Cu  Cu68      1.0  0.24555000000000002  0.8631  0.3631  1.0000
  Cu  Cu69      1.0  0.3631  0.7455499999999999  0.3631  1.0000
  Cu  Cu70      1.0  0.3631  0.8631  0.7544500000000001  1.0000
  Cu  Cu71      1.0  0.24555000000000002  0.8631  0.6369  1.0000
  Cu  Cu72      1.0  0.3631  0.7455499999999999  0.6369  1.0000
  Cu  Cu73      1.0  0.6369  0.6369  0.25445  1.0000
  Cu  Cu74      1.0  0.7544500000000001  0.6369  0.1369  1.0000
  Cu  Cu75      1.0  0.6369  0.7544500000000001  0.1369  1.0000
  Cu  Cu76      1.0  0.6369  0.6369  0.7455499999999999  1.0000
  Cu  Cu77      1.0  0.7544500000000001  0.6369  0.8631  1.0000
  Cu  Cu78      1.0  0.6369  0.7544500000000001  0.8631  1.0000
  Cu  Cu79      1.0  0.3631  0.6369  0.25445  1.0000
  Cu  Cu80      1.0  0.24555000000000002  0.6369  0.1369  1.0000
  Cu  Cu81      1.0  0.3631  0.7544500000000001  0.1369  1.0000
  Cu  Cu82      1.0  0.3631  0.6369  0.7455499999999999  1.0000
  Cu  Cu83      1.0  0.24555000000000002  0.6369  0.8631  1.0000
  Cu  Cu84      1.0  0.3631  0.7544500000000001  0.8631  1.0000
  Cu  Cu85      1.0  0.6369  0.3631  0.25445  1.0000
  Cu  Cu86      1.0  0.6369  0.24555000000000002  0.1369  1.0000
  Cu  Cu87      1.0  0.7544500000000001  0.3631  0.1369  1.0000
  Cu  Cu88      1.0  0.6369  0.3631  0.7455499999999999  1.0000
  Cu  Cu89      1.0  0.6369  0.24555000000000002  0.8631  1.0000
  Cu  Cu90      1.0  0.7544500000000001  0.3631  0.8631  1.0000
  Cu  Cu91      1.0  0.3631  0.3631  0.7455499999999999  1.0000
  Cu  Cu92      1.0  0.24555000000000002  0.3631  0.8631  1.0000
  Cu  Cu93      1.0  0.3631  0.24555000000000002  0.8631  1.0000
  Cu  Cu94      1.0  0.3631  0.3631  0.25445  1.0000
  Cu  Cu95      1.0  0.24555000000000002  0.3631  0.1369  1.0000
  Cu  Cu96      1.0  0.3631  0.24555000000000002  0.1369  1.0000
  Cu  Cu97      1.0  0.0  0.18213  0.18213  1.0000
  Cu  Cu98      1.0  0.18213  0.0  0.18213  1.0000
  Cu  Cu99      1.0  0.18213  0.18213  0.0  1.0000
  Cu  Cu100     1.0  0.0  0.18213  0.81787  1.0000
  Cu  Cu101     1.0  0.18213  0.0  0.81787  1.0000
  Cu  Cu102     1.0  0.81787  0.0  0.18213  1.0000
  Cu  Cu103     1.0  0.81787  0.18213  0.0  1.0000
  Cu  Cu104     1.0  0.81787  0.0  0.81787  1.0000
  Cu  Cu105     1.0  0.0  0.81787  0.18213  1.0000
  Cu  Cu106     1.0  0.18213  0.81787  0.0  1.0000
  Cu  Cu107     1.0  0.0  0.81787  0.81787  1.0000
  Cu  Cu108     1.0  0.81787  0.81787  0.0  1.0000
  Cu  Cu109     1.0  0.0  0.68213  0.68213  1.0000
  Cu  Cu110     1.0  0.18213  0.5  0.68213  1.0000
  Cu  Cu111     1.0  0.18213  0.68213  0.5  1.0000
  Cu  Cu112     1.0  0.0  0.68213  0.31787  1.0000
  Cu  Cu113     1.0  0.18213  0.5  0.31787  1.0000
  Cu  Cu114     1.0  0.81787  0.5  0.68213  1.0000
  Cu  Cu115     1.0  0.81787  0.68213  0.5  1.0000
  Cu  Cu116     1.0  0.81787  0.5  0.31787  1.0000
  Cu  Cu117     1.0  0.0  0.31787  0.68213  1.0000
  Cu  Cu118     1.0  0.18213  0.31787  0.5  1.0000
  Cu  Cu119     1.0  0.0  0.31787  0.31787  1.0000
  Cu  Cu120     1.0  0.81787  0.31787  0.5  1.0000
  Cu  Cu121     1.0  0.5  0.18213  0.68213  1.0000
  Cu  Cu122     1.0  0.68213  0.0  0.68213  1.0000
  Cu  Cu123     1.0  0.68213  0.18213  0.5  1.0000
  Cu  Cu124     1.0  0.5  0.18213  0.31787  1.0000
  Cu  Cu125     1.0  0.68213  0.0  0.31787  1.0000
  Cu  Cu126     1.0  0.31787  0.0  0.68213  1.0000
  Cu  Cu127     1.0  0.31787  0.18213  0.5  1.0000
  Cu  Cu128     1.0  0.31787  0.0  0.31787  1.0000
  Cu  Cu129     1.0  0.5  0.81787  0.68213  1.0000
  Cu  Cu130     1.0  0.68213  0.81787  0.5  1.0000
  Cu  Cu131     1.0  0.5  0.81787  0.31787  1.0000
  Cu  Cu132     1.0  0.31787  0.81787  0.5  1.0000
  Cu  Cu133     1.0  0.5  0.68213  0.18213  1.0000
  Cu  Cu134     1.0  0.68213  0.5  0.18213  1.0000
  Cu  Cu135     1.0  0.68213  0.68213  0.0  1.0000
  Cu  Cu136     1.0  0.5  0.68213  0.81787  1.0000
  Cu  Cu137     1.0  0.68213  0.5  0.81787  1.0000
  Cu  Cu138     1.0  0.31787  0.5  0.18213  1.0000
  Cu  Cu139     1.0  0.31787  0.68213  0.0  1.0000
  Cu  Cu140     1.0  0.31787  0.5  0.81787  1.0000
  Cu  Cu141     1.0  0.5  0.31787  0.18213  1.0000
  Cu  Cu142     1.0  0.68213  0.31787  0.0  1.0000
  Cu  Cu143     1.0  0.5  0.31787  0.81787  1.0000
  Cu  Cu144     1.0  0.31787  0.31787  0.0  1.0000
  Cu  Cu145     1.0  0.41208  0.41208  0.41208  1.0000
  Cu  Cu146     1.0  0.41208  0.41208  0.58792  1.0000
  Cu  Cu147     1.0  0.58792  0.41208  0.41208  1.0000
  Cu  Cu148     1.0  0.58792  0.41208  0.58792  1.0000
  Cu  Cu149     1.0  0.41208  0.58792  0.41208  1.0000
  Cu  Cu150     1.0  0.41208  0.58792  0.58792  1.0000
  Cu  Cu151     1.0  0.58792  0.58792  0.58792  1.0000
  Cu  Cu152     1.0  0.58792  0.58792  0.41208  1.0000
  Cu  Cu153     1.0  0.41208  0.91208  0.91208  1.0000
  Cu  Cu154     1.0  0.41208  0.91208  0.08792  1.0000
  Cu  Cu155     1.0  0.58792  0.91208  0.91208  1.0000
  Cu  Cu156     1.0  0.58792  0.91208  0.08792  1.0000
  Cu  Cu157     1.0  0.41208  0.08792  0.91208  1.0000
  Cu  Cu158     1.0  0.41208  0.08792  0.08792  1.0000
  Cu  Cu159     1.0  0.58792  0.08792  0.08792  1.0000
  Cu  Cu160     1.0  0.58792  0.08792  0.91208  1.0000
  Cu  Cu161     1.0  0.91208  0.41208  0.91208  1.0000
  Cu  Cu162     1.0  0.91208  0.41208  0.08792  1.0000
  Cu  Cu163     1.0  0.08792  0.41208  0.91208  1.0000
  Cu  Cu164     1.0  0.08792  0.41208  0.08792  1.0000
  Cu  Cu165     1.0  0.91208  0.58792  0.91208  1.0000
  Cu  Cu166     1.0  0.91208  0.58792  0.08792  1.0000
  Cu  Cu167     1.0  0.08792  0.58792  0.08792  1.0000
  Cu  Cu168     1.0  0.08792  0.58792  0.91208  1.0000
  Cu  Cu169     1.0  0.91208  0.91208  0.41208  1.0000
  Cu  Cu170     1.0  0.91208  0.91208  0.58792  1.0000
  Cu  Cu171     1.0  0.08792  0.91208  0.41208  1.0000
  Cu  Cu172     1.0  0.08792  0.91208  0.58792  1.0000
  Cu  Cu173     1.0  0.91208  0.08792  0.41208  1.0000
  Cu  Cu174     1.0  0.91208  0.08792  0.58792  1.0000
  Cu  Cu175     1.0  0.08792  0.08792  0.58792  1.0000
  Cu  Cu176     1.0  0.08792  0.08792  0.41208  1.0000
  As  As1       1.0  0.5  0.17189  0.17189  1.0000
  As  As2       1.0  0.17189  0.5  0.17189  1.0000
  As  As3       1.0  0.17189  0.17189  0.5  1.0000
  As  As4       1.0  0.5  0.17189  0.82811  1.0000
  As  As5       1.0  0.17189  0.5  0.82811  1.0000
  As  As6       1.0  0.82811  0.5  0.17189  1.0000
  As  As7       1.0  0.82811  0.17189  0.5  1.0000
  As  As8       1.0  0.82811  0.5  0.82811  1.0000
  As  As9       1.0  0.5  0.82811  0.17189  1.0000
  As  As10      1.0  0.17189  0.82811  0.5  1.0000
  As  As11      1.0  0.5  0.82811  0.82811  1.0000
  As  As12      1.0  0.82811  0.82811  0.5  1.0000
  As  As13      1.0  0.5  0.67189  0.67189  1.0000
  As  As14      1.0  0.17189  0.0  0.67189  1.0000
  As  As15      1.0  0.17189  0.67189  0.0  1.0000
  As  As16      1.0  0.5  0.67189  0.32811  1.0000
  As  As17      1.0  0.17189  0.0  0.32811  1.0000
  As  As18      1.0  0.82811  0.0  0.67189  1.0000
  As  As19      1.0  0.82811  0.67189  0.0  1.0000
  As  As20      1.0  0.82811  0.0  0.32811  1.0000
  As  As21      1.0  0.5  0.32811  0.67189  1.0000
  As  As22      1.0  0.17189  0.32811  0.0  1.0000
  As  As23      1.0  0.5  0.32811  0.32811  1.0000
  As  As24      1.0  0.82811  0.32811  0.0  1.0000
  As  As25      1.0  0.0  0.17189  0.67189  1.0000
  As  As26      1.0  0.67189  0.5  0.67189  1.0000
  As  As27      1.0  0.67189  0.17189  0.0  1.0000
  As  As28      1.0  0.0  0.17189  0.32811  1.0000
  As  As29      1.0  0.67189  0.5  0.32811  1.0000
  As  As30      1.0  0.32811  0.5  0.67189  1.0000
  As  As31      1.0  0.32811  0.17189  0.0  1.0000
  As  As32      1.0  0.32811  0.5  0.32811  1.0000
  As  As33      1.0  0.0  0.82811  0.67189  1.0000
  As  As34      1.0  0.67189  0.82811  0.0  1.0000
  As  As35      1.0  0.0  0.82811  0.32811  1.0000
  As  As36      1.0  0.32811  0.82811  0.0  1.0000
  As  As37      1.0  0.0  0.67189  0.17189  1.0000
  As  As38      1.0  0.67189  0.0  0.17189  1.0000
  As  As39      1.0  0.67189  0.67189  0.5  1.0000
  As  As40      1.0  0.0  0.67189  0.82811  1.0000
  As  As41      1.0  0.67189  0.0  0.82811  1.0000
  As  As42      1.0  0.32811  0.0  0.17189  1.0000
  As  As43      1.0  0.32811  0.67189  0.5  1.0000
  As  As44      1.0  0.32811  0.0  0.82811  1.0000
  As  As45      1.0  0.0  0.32811  0.17189  1.0000
  As  As46      1.0  0.67189  0.32811  0.5  1.0000
  As  As47      1.0  0.0  0.32811  0.82811  1.0000
  As  As48      1.0  0.32811  0.32811  0.5  1.0000
  As  As49      1.0  0.11085  0.11085  0.11085  1.0000
  As  As50      1.0  0.11085  0.11085  0.88915  1.0000
  As  As51      1.0  0.88915  0.11085  0.11085  1.0000
  As  As52      1.0  0.88915  0.11085  0.88915  1.0000
  As  As53      1.0  0.11085  0.88915  0.11085  1.0000
  As  As54      1.0  0.11085  0.88915  0.88915  1.0000
  As  As55      1.0  0.88915  0.88915  0.88915  1.0000
  As  As56      1.0  0.88915  0.88915  0.11085  1.0000
  As  As57      1.0  0.11085  0.61085  0.61085  1.0000
  As  As58      1.0  0.11085  0.61085  0.38915  1.0000
  As  As59      1.0  0.88915  0.61085  0.61085  1.0000
  As  As60      1.0  0.88915  0.61085  0.38915  1.0000
  As  As61      1.0  0.11085  0.38915  0.61085  1.0000
  As  As62      1.0  0.11085  0.38915  0.38915  1.0000
  As  As63      1.0  0.88915  0.38915  0.38915  1.0000
  As  As64      1.0  0.88915  0.38915  0.61085  1.0000
  As  As65      1.0  0.61085  0.11085  0.61085  1.0000
  As  As66      1.0  0.61085  0.11085  0.38915  1.0000
  As  As67      1.0  0.38915  0.11085  0.61085  1.0000
  As  As68      1.0  0.38915  0.11085  0.38915  1.0000
  As  As69      1.0  0.61085  0.88915  0.61085  1.0000
  As  As70      1.0  0.61085  0.88915  0.38915  1.0000
  As  As71      1.0  0.38915  0.88915  0.38915  1.0000
  As  As72      1.0  0.38915  0.88915  0.61085  1.0000
  As  As73      1.0  0.61085  0.61085  0.11085  1.0000
  As  As74      1.0  0.61085  0.61085  0.88915  1.0000
  As  As75      1.0  0.38915  0.61085  0.11085  1.0000
  As  As76      1.0  0.38915  0.61085  0.88915  1.0000
  As  As77      1.0  0.61085  0.38915  0.11085  1.0000
  As  As78      1.0  0.61085  0.38915  0.88915  1.0000
  As  As79      1.0  0.38915  0.38915  0.88915  1.0000
  As  As80      1.0  0.38915  0.38915  0.11085  1.0000
  As  As81      1.0  0.25  0.25  0.25  1.0000
  As  As82      1.0  0.25  0.25  0.75  1.0000
  As  As83      1.0  0.75  0.25  0.25  1.0000
  As  As84      1.0  0.75  0.25  0.75  1.0000
  As  As85      1.0  0.25  0.75  0.25  1.0000
  As  As86      1.0  0.25  0.75  0.75  1.0000
  As  As87      1.0  0.75  0.75  0.75  1.0000
  As  As88      1.0  0.75  0.75  0.25  1.0000
  As  As89      1.0  0.5  0.5  0.5  1.0000
  As  As90      1.0  0.5  0.0  0.0  1.0000
  As  As91      1.0  0.0  0.5  0.0  1.0000
  As  As92      1.0  0.0  0.0  0.5  1.0000
