data_image0
_chemical_formula_structural       NaZn2As2
_chemical_formula_sum              "Na1 Zn2 As2"
_cell_length_a       4.0948
_cell_length_b       4.0948
_cell_length_c       7.4463
_cell_angle_alpha    90.0
_cell_angle_beta     90.0
_cell_angle_gamma    119.99999999999999

_space_group_name_H-M_alt    "P 1"
_space_group_IT_number       1

loop_
  _space_group_symop_operation_xyz
  'x, y, z'

loop_
  _atom_site_type_symbol
  _atom_site_label
  _atom_site_symmetry_multiplicity
  _atom_site_fract_x
  _atom_site_fract_y
  _atom_site_fract_z
  _atom_site_occupancy
  Na  Na1       1.0  0.0  0.0  0.0  1.0000
  Zn  Zn1       1.0  0.3333  0.6667  0.62869  0.7500
  Zn  Zn2       1.0  0.6667  0.3333  0.3713100000000001  0.7500
  As  As1       1.0  0.3333  0.6667  0.26887  1.0000
  As  As2       1.0  0.6667  0.3333  0.7311300000000001  1.0000
  Ge  Ge1       1.0  0.3333  0.6667  0.62869  0.2500
  Ge  Ge2       1.0  0.6667  0.3333  0.3713100000000001  0.2500
