data_image0
_chemical_formula_structural       Sr12Cu6N10
_chemical_formula_sum              "Sr12 Cu6 N10"
_cell_length_a       8.657
_cell_length_b       8.657
_cell_length_c       7.334
_cell_angle_alpha    90.0
_cell_angle_beta     90.0
_cell_angle_gamma    90.0

_space_group_name_H-M_alt    "P 1"
_space_group_IT_number       1

loop_
  _space_group_symop_operation_xyz
  'x, y, z'

loop_
  _atom_site_type_symbol
  _atom_site_label
  _atom_site_symmetry_multiplicity
  _atom_site_fract_x
  _atom_site_fract_y
  _atom_site_fract_z
  _atom_site_occupancy
  Sr  Sr1       1.0  0.2664  0.3033  0.20869999999999997  1.0000
  Sr  Sr2       1.0  0.7336  0.6967  0.20869999999999997  1.0000
  Sr  Sr3       1.0  0.6967  0.2664  0.7087  1.0000
  Sr  Sr4       1.0  0.3033  0.7336  0.7087  1.0000
  Sr  Sr5       1.0  0.7336  0.3033  0.20869999999999997  1.0000
  Sr  Sr6       1.0  0.2664  0.6967  0.20869999999999997  1.0000
  Sr  Sr7       1.0  0.3033  0.2664  0.7087  1.0000
  Sr  Sr8       1.0  0.6967  0.7336  0.7087  1.0000
  Sr  Sr9       1.0  0.0  0.5  0.5197999999999998  1.0000
  Sr  Sr10      1.0  0.5  0.0  0.01980000000000004  1.0000
  Sr  Sr11      1.0  0.0  0.0  0.9988999999999999  1.0000
  Sr  Sr12      1.0  0.0  0.0  0.49889999999999995  1.0000
  Cu  Cu1       1.0  0.3586  0.0  0.43469999999999986  1.0000
  Cu  Cu2       1.0  0.6414  0.0  0.43469999999999986  1.0000
  Cu  Cu3       1.0  0.0  0.3586  0.9346999999999998  1.0000
  Cu  Cu4       1.0  0.0  0.6414  0.9346999999999998  1.0000
  Cu  Cu5       1.0  0.5  0.5  0.4731  1.0000
  Cu  Cu6       1.0  0.5  0.5  0.9731  1.0000
  N   N1        1.0  0.285  0.5  0.48509999999999986  1.0000
  N   N2        1.0  0.7150000000000001  0.5  0.48509999999999986  1.0000
  N   N3        1.0  0.5  0.285  0.9850999999999998  1.0000
  N   N4        1.0  0.5  0.7150000000000001  0.9850999999999998  1.0000
  N   N5        1.0  0.2178  0.0  0.24289999999999995  1.0000
  N   N6        1.0  0.7822  0.0  0.24289999999999995  1.0000
  N   N7        1.0  0.0  0.2178  0.7428999999999999  1.0000
  N   N8        1.0  0.0  0.7822  0.7428999999999999  1.0000
  N   N9        1.0  0.0  0.5  0.1383  1.0000
  N   N10       1.0  0.5  0.0  0.6383  1.0000
