data_image0
_chemical_formula_structural       La6Si12N22
_chemical_formula_sum              "La6 Si12 N22"
_cell_length_a       10.1988
_cell_length_b       10.1988
_cell_length_c       4.84153
_cell_angle_alpha    90.0
_cell_angle_beta     90.0
_cell_angle_gamma    90.0

_space_group_name_H-M_alt    "P 1"
_space_group_IT_number       1

loop_
  _space_group_symop_operation_xyz
  'x, y, z'

loop_
  _atom_site_type_symbol
  _atom_site_label
  _atom_site_symmetry_multiplicity
  _atom_site_fract_x
  _atom_site_fract_y
  _atom_site_fract_z
  _atom_site_occupancy
  La  La1       1.0  0.680962  0.180962  0.01861  1.0000
  La  La2       1.0  0.819038  0.6809620000000002  0.01861  1.0000
  La  La3       1.0  0.31903800000000004  0.819038  0.01861  1.0000
  La  La4       1.0  0.18096200000000007  0.319038  0.01861  1.0000
  La  La5       1.0  0.0  0.0  0.0  1.0000
  La  La6       1.0  0.5  0.5  0.0  1.0000
  Si  Si1       1.0  0.20985000000000006  0.07807  0.5344  1.0000
  Si  Si2       1.0  0.29014999999999996  0.57807  0.5344  1.0000
  Si  Si3       1.0  0.7901499999999999  0.9219300000000001  0.5344  1.0000
  Si  Si4       1.0  0.7098500000000001  0.4219300000000001  0.5344  1.0000
  Si  Si5       1.0  0.4219300000000001  0.29014999999999996  0.5344  1.0000
  Si  Si6       1.0  0.07807  0.7901499999999999  0.5344  1.0000
  Si  Si7       1.0  0.9219300000000001  0.20985000000000006  0.5344  1.0000
  Si  Si8       1.0  0.57807  0.7098500000000001  0.5344  1.0000
  Si  Si9       1.0  0.11658  0.61658  0.0439  1.0000
  Si  Si10      1.0  0.38342  0.11657999999999992  0.0439  1.0000
  Si  Si11      1.0  0.8834200000000001  0.38342  0.0439  1.0000
  Si  Si12      1.0  0.61658  0.8834200000000001  0.0439  1.0000
  N   N1        1.0  0.0803  0.1779  0.6388  1.0000
  N   N2        1.0  0.4197000000000001  0.6779  0.6388  1.0000
  N   N3        1.0  0.9197000000000001  0.8221  0.6388  1.0000
  N   N4        1.0  0.5803000000000001  0.3221  0.6388  1.0000
  N   N5        1.0  0.3221  0.4197000000000001  0.6388  1.0000
  N   N6        1.0  0.1779  0.9197000000000001  0.6388  1.0000
  N   N7        1.0  0.8221  0.0803  0.6388  1.0000
  N   N8        1.0  0.6779  0.5803000000000001  0.6388  1.0000
  N   N9        1.0  0.23320000000000002  0.0739  0.1807  1.0000
  N   N10       1.0  0.2668  0.5739  0.1807  1.0000
  N   N11       1.0  0.7668  0.9261  0.1807  1.0000
  N   N12       1.0  0.7332000000000001  0.42610000000000003  0.1807  1.0000
  N   N13       1.0  0.42610000000000003  0.2668  0.1807  1.0000
  N   N14       1.0  0.0739  0.7668  0.1807  1.0000
  N   N15       1.0  0.9261  0.23320000000000002  0.1807  1.0000
  N   N16       1.0  0.5739  0.7332000000000001  0.1807  1.0000
  N   N17       1.0  0.1527  0.6527  0.6958  1.0000
  N   N18       1.0  0.3473  0.15269999999999986  0.6958  1.0000
  N   N19       1.0  0.8472999999999999  0.3473000000000001  0.6958  1.0000
  N   N20       1.0  0.6527000000000001  0.8473000000000002  0.6958  1.0000
  N   N21       1.0  0.5  0.0  0.0717  1.0000
  N   N22       1.0  0.0  0.5  0.0717  1.0000
