data_image0
_chemical_formula_structural       Ru4O12Ru4O18Sr12
_chemical_formula_sum              "Ru8 O30 Sr12"
_cell_length_a       9.642
_cell_length_b       9.642
_cell_length_c       8.104
_cell_angle_alpha    90.0
_cell_angle_beta     90.0
_cell_angle_gamma    119.99999999999999

_space_group_name_H-M_alt    "P 1"
_space_group_IT_number       1

loop_
  _space_group_symop_operation_xyz
  'x, y, z'

loop_
  _atom_site_type_symbol
  _atom_site_label
  _atom_site_symmetry_multiplicity
  _atom_site_fract_x
  _atom_site_fract_y
  _atom_site_fract_z
  _atom_site_occupancy
  Ru  Ru1       1.0  0.0  0.0  0.1708  0.5000
  Ru  Ru2       1.0  0.0  0.0  0.32920000000000005  0.5000
  Ru  Ru3       1.0  0.0  0.0  0.6708000000000002  0.5000
  Ru  Ru4       1.0  0.0  0.0  0.8291999999999999  0.5000
  O   O1        1.0  0.008599999999999912  0.8299999999999997  0.25  1.0000
  O   O2        1.0  0.8213999999999999  0.9914  0.25  1.0000
  O   O3        1.0  0.17000000000000015  0.17860000000000006  0.25  1.0000
  O   O4        1.0  0.83  0.008599999999999967  0.75  1.0000
  O   O5        1.0  0.17860000000000012  0.17000000000000012  0.75  1.0000
  O   O6        1.0  0.9914000000000001  0.8213999999999998  0.75  1.0000
  O   O7        1.0  0.15500000000000003  0.0  0.0  0.5000
  O   O8        1.0  0.8450000000000001  0.845  0.5  0.5000
  O   O9        1.0  3.1899625258468455e-18  0.15500000000000003  0.0  0.5000
  O   O10       1.0  0.15500000000000003  0.0  0.5  0.5000
  O   O11       1.0  0.8450000000000001  0.845  0.0  0.5000
  O   O12       1.0  3.1899625258468455e-18  0.15500000000000003  0.5  0.5000
  Ru  Ru5       1.0  0.66667  0.33332999999999996  0.4216  1.0000
  Ru  Ru6       1.0  0.66666  0.33332999999999996  0.07840000000000004  1.0000
  Ru  Ru7       1.0  0.33332999999999996  0.6666699999999999  0.9216  1.0000
  Ru  Ru8       1.0  0.33334  0.66667  0.5784  1.0000
  O   O13       1.0  0.6834  0.5092  0.5334000000000002  1.0000
  O   O14       1.0  0.8258000000000001  0.3166  0.9665999999999999  1.0000
  O   O15       1.0  0.49080000000000007  0.1742  0.5334000000000002  1.0000
  O   O16       1.0  0.6834  0.5092  0.9665999999999999  1.0000
  O   O17       1.0  0.8258000000000001  0.3166  0.5334000000000002  1.0000
  O   O18       1.0  0.49080000000000007  0.1742  0.9665999999999999  1.0000
  O   O19       1.0  0.5092  0.6834  0.033400000000000096  1.0000
  O   O20       1.0  0.17420000000000002  0.49079999999999996  0.4665999999999999  1.0000
  O   O21       1.0  0.3166  0.8258  0.033400000000000096  1.0000
  O   O22       1.0  0.5092  0.6834  0.4665999999999999  1.0000
  O   O23       1.0  0.17420000000000002  0.49079999999999996  0.033400000000000096  1.0000
  O   O24       1.0  0.3166  0.8258  0.4665999999999999  1.0000
  O   O25       1.0  0.5154  0.3547  0.25  1.0000
  O   O26       1.0  0.8393  0.48460000000000003  0.25  1.0000
  O   O27       1.0  0.6453  0.16069999999999993  0.25  1.0000
  O   O28       1.0  0.3547  0.5154  0.75  1.0000
  O   O29       1.0  0.16069999999999998  0.6453  0.75  1.0000
  O   O30       1.0  0.4846  0.8392999999999999  0.75  1.0000
  Sr  Sr1       1.0  0.6639  0.0  0.0  1.0000
  Sr  Sr2       1.0  0.33609999999999995  0.3360999999999999  0.5  1.0000
  Sr  Sr3       1.0  1.3909397268996787e-17  0.6639  0.0  1.0000
  Sr  Sr4       1.0  0.6639  0.0  0.5  1.0000
  Sr  Sr5       1.0  0.33609999999999995  0.3360999999999999  0.0  1.0000
  Sr  Sr6       1.0  1.3909397268996787e-17  0.6639  0.5  1.0000
  Sr  Sr7       1.0  0.3358  0.017599999999999994  0.25  1.0000
  Sr  Sr8       1.0  0.6818  0.6642  0.25  1.0000
  Sr  Sr9       1.0  0.9824  0.3182  0.25  1.0000
  Sr  Sr10      1.0  0.017599999999999998  0.3358  0.75  1.0000
  Sr  Sr11      1.0  0.3182  0.9824  0.75  1.0000
  Sr  Sr12      1.0  0.6642000000000001  0.6818  0.75  1.0000
