data_image0
_chemical_formula_structural       Cl4O16Li4
_chemical_formula_sum              "Cl4 O16 Li4"
_cell_length_a       8.6447
_cell_length_b       6.8512
_cell_length_c       4.8254
_cell_angle_alpha    90.0
_cell_angle_beta     90.0
_cell_angle_gamma    90.0

_space_group_name_H-M_alt    "P 1"
_space_group_IT_number       1

loop_
  _space_group_symop_operation_xyz
  'x, y, z'

loop_
  _atom_site_type_symbol
  _atom_site_label
  _atom_site_symmetry_multiplicity
  _atom_site_fract_x
  _atom_site_fract_y
  _atom_site_fract_z
  _atom_site_occupancy
  Cl  Cl1       1.0  0.8170300000000003  0.25  0.03882  1.0000
  Cl  Cl2       1.0  0.6829699999999999  0.75  0.53882  1.0000
  Cl  Cl3       1.0  0.18296999999999988  0.75  0.9611800000000001  1.0000
  Cl  Cl4       1.0  0.3170300000000002  0.25  0.46118  1.0000
  O   O1        1.0  0.8711800000000002  0.42318999999999996  0.1753  1.0000
  O   O2        1.0  0.6288199999999999  0.57681  0.6753  1.0000
  O   O3        1.0  0.12881999999999993  0.92319  0.8247000000000001  1.0000
  O   O4        1.0  0.37118000000000007  0.07681000000000004  0.3247  1.0000
  O   O5        1.0  0.12881999999999993  0.57681  0.8247000000000001  1.0000
  O   O6        1.0  0.37118000000000007  0.42318999999999996  0.3247  1.0000
  O   O7        1.0  0.8711800000000002  0.07681000000000004  0.1753  1.0000
  O   O8        1.0  0.6288199999999999  0.92319  0.6753  1.0000
  O   O9        1.0  0.6490000000000002  0.25  0.0464  1.0000
  O   O10       1.0  0.8509999999999999  0.75  0.5464  1.0000
  O   O11       1.0  0.3509999999999999  0.75  0.9536  1.0000
  O   O12       1.0  0.14900000000000002  0.25  0.45360000000000006  1.0000
  O   O13       1.0  0.86955  0.25  0.7548999999999999  1.0000
  O   O14       1.0  0.63045  0.75  0.25489999999999996  1.0000
  O   O15       1.0  0.13044999999999995  0.75  0.24510000000000004  1.0000
  O   O16       1.0  0.36955000000000005  0.25  0.7451000000000002  1.0000
  Li  Li1       1.0  0.0  0.5  0.5  1.0000
  Li  Li2       1.0  0.5  0.5  0.0  1.0000
  Li  Li3       1.0  0.0  0.0  0.5  1.0000
  Li  Li4       1.0  0.5  0.0  0.0  1.0000
