data_image0
_chemical_formula_structural       As32O48
_chemical_formula_sum              "As32 O48"
_cell_length_a       11.06
_cell_length_b       11.06
_cell_length_c       11.06
_cell_angle_alpha    90.0
_cell_angle_beta     90.0
_cell_angle_gamma    90.0

_space_group_name_H-M_alt    "P 1"
_space_group_IT_number       1

loop_
  _space_group_symop_operation_xyz
  'x, y, z'

loop_
  _atom_site_type_symbol
  _atom_site_label
  _atom_site_symmetry_multiplicity
  _atom_site_fract_x
  _atom_site_fract_y
  _atom_site_fract_z
  _atom_site_occupancy
  As  As1       1.0  0.895  0.895  0.895  1.0000
  As  As2       1.0  0.895  0.10499999999999998  0.10499999999999998  1.0000
  As  As3       1.0  0.10499999999999998  0.895  0.10499999999999998  1.0000
  As  As4       1.0  0.10499999999999998  0.10499999999999998  0.895  1.0000
  As  As5       1.0  0.355  0.355  0.355  1.0000
  As  As6       1.0  0.355  0.14500000000000002  0.14500000000000002  1.0000
  As  As7       1.0  0.14500000000000002  0.355  0.14500000000000002  1.0000
  As  As8       1.0  0.14500000000000002  0.14500000000000002  0.355  1.0000
  As  As9       1.0  0.895  0.395  0.395  1.0000
  As  As10      1.0  0.395  0.895  0.395  1.0000
  As  As11      1.0  0.395  0.395  0.895  1.0000
  As  As12      1.0  0.895  0.605  0.605  1.0000
  As  As13      1.0  0.395  0.10499999999999998  0.605  1.0000
  As  As14      1.0  0.395  0.605  0.10499999999999998  1.0000
  As  As15      1.0  0.10499999999999998  0.395  0.605  1.0000
  As  As16      1.0  0.605  0.895  0.605  1.0000
  As  As17      1.0  0.605  0.395  0.10499999999999998  1.0000
  As  As18      1.0  0.10499999999999998  0.605  0.395  1.0000
  As  As19      1.0  0.605  0.10499999999999998  0.395  1.0000
  As  As20      1.0  0.605  0.605  0.895  1.0000
  As  As21      1.0  0.355  0.8550000000000001  0.8550000000000001  1.0000
  As  As22      1.0  0.8550000000000001  0.355  0.8550000000000001  1.0000
  As  As23      1.0  0.8550000000000001  0.8550000000000001  0.355  1.0000
  As  As24      1.0  0.355  0.645  0.645  1.0000
  As  As25      1.0  0.8550000000000001  0.14500000000000002  0.645  1.0000
  As  As26      1.0  0.8550000000000001  0.645  0.14500000000000002  1.0000
  As  As27      1.0  0.14500000000000002  0.8550000000000001  0.645  1.0000
  As  As28      1.0  0.645  0.355  0.645  1.0000
  As  As29      1.0  0.645  0.8550000000000001  0.14500000000000002  1.0000
  As  As30      1.0  0.14500000000000002  0.645  0.8550000000000001  1.0000
  As  As31      1.0  0.645  0.14500000000000002  0.8550000000000001  1.0000
  As  As32      1.0  0.645  0.645  0.355  1.0000
  O   O1        1.0  0.21  0.0  0.0  1.0000
  O   O2        1.0  0.0  0.0  0.21  1.0000
  O   O3        1.0  0.0  0.21  0.0  1.0000
  O   O4        1.0  0.0  0.0  0.79  1.0000
  O   O5        1.0  0.0  0.79  0.0  1.0000
  O   O6        1.0  0.79  0.0  0.0  1.0000
  O   O7        1.0  0.040000000000000015  0.25  0.25  1.0000
  O   O8        1.0  0.25  0.25  0.040000000000000015  1.0000
  O   O9        1.0  0.25  0.040000000000000015  0.25  1.0000
  O   O10       1.0  0.25  0.25  0.46  1.0000
  O   O11       1.0  0.25  0.46  0.25  1.0000
  O   O12       1.0  0.46  0.25  0.25  1.0000
  O   O13       1.0  0.21  0.5  0.5  1.0000
  O   O14       1.0  0.71  0.0  0.5  1.0000
  O   O15       1.0  0.71  0.5  0.0  1.0000
  O   O16       1.0  0.0  0.5  0.71  1.0000
  O   O17       1.0  0.5  0.0  0.71  1.0000
  O   O18       1.0  0.5  0.5  0.21  1.0000
  O   O19       1.0  0.0  0.71  0.5  1.0000
  O   O20       1.0  0.5  0.21  0.5  1.0000
  O   O21       1.0  0.5  0.71  0.0  1.0000
  O   O22       1.0  0.0  0.5  0.29000000000000004  1.0000
  O   O23       1.0  0.5  0.0  0.29000000000000004  1.0000
  O   O24       1.0  0.5  0.5  0.79  1.0000
  O   O25       1.0  0.0  0.29000000000000004  0.5  1.0000
  O   O26       1.0  0.5  0.79  0.5  1.0000
  O   O27       1.0  0.5  0.29000000000000004  0.0  1.0000
  O   O28       1.0  0.79  0.5  0.5  1.0000
  O   O29       1.0  0.29000000000000004  0.0  0.5  1.0000
  O   O30       1.0  0.29000000000000004  0.5  0.0  1.0000
  O   O31       1.0  0.040000000000000015  0.75  0.75  1.0000
  O   O32       1.0  0.54  0.25  0.75  1.0000
  O   O33       1.0  0.54  0.75  0.25  1.0000
  O   O34       1.0  0.25  0.75  0.54  1.0000
  O   O35       1.0  0.75  0.25  0.54  1.0000
  O   O36       1.0  0.75  0.75  0.040000000000000015  1.0000
  O   O37       1.0  0.25  0.54  0.75  1.0000
  O   O38       1.0  0.75  0.040000000000000015  0.75  1.0000
  O   O39       1.0  0.75  0.54  0.25  1.0000
  O   O40       1.0  0.25  0.75  0.96  1.0000
  O   O41       1.0  0.75  0.25  0.96  1.0000
  O   O42       1.0  0.75  0.75  0.46  1.0000
  O   O43       1.0  0.25  0.96  0.75  1.0000
  O   O44       1.0  0.75  0.46  0.75  1.0000
  O   O45       1.0  0.75  0.96  0.25  1.0000
  O   O46       1.0  0.46  0.75  0.75  1.0000
  O   O47       1.0  0.96  0.25  0.75  1.0000
  O   O48       1.0  0.96  0.75  0.25  1.0000
