data_image0
_chemical_formula_structural       Pb4Mo16O16
_chemical_formula_sum              "Pb4 Mo16 O16"
_cell_length_a       9.615
_cell_length_b       9.615
_cell_length_c       11.362
_cell_angle_alpha    90.0
_cell_angle_beta     90.0
_cell_angle_gamma    90.0

_space_group_name_H-M_alt    "P 1"
_space_group_IT_number       1

loop_
  _space_group_symop_operation_xyz
  'x, y, z'

loop_
  _atom_site_type_symbol
  _atom_site_label
  _atom_site_symmetry_multiplicity
  _atom_site_fract_x
  _atom_site_fract_y
  _atom_site_fract_z
  _atom_site_occupancy
  Pb  Pb1       1.0  0.0  0.0  0.3433  1.0000
  Pb  Pb2       1.0  0.5  0.5  0.1567  1.0000
  Pb  Pb3       1.0  0.0  0.0  0.6567000000000001  1.0000
  Pb  Pb4       1.0  0.5  0.5  0.8433  1.0000
  Mo  Mo1       1.0  0.6019399999999999  0.10193999999999999  0.0  1.0000
  Mo  Mo2       1.0  0.39806  0.8980599999999999  0.0  1.0000
  Mo  Mo3       1.0  0.8980599999999999  0.6019399999999999  0.0  1.0000
  Mo  Mo4       1.0  0.10193999999999999  0.39806  0.0  1.0000
  Mo  Mo5       1.0  0.8980600000000001  0.6019399999999999  0.5  1.0000
  Mo  Mo6       1.0  0.10193999999999992  0.39806  0.5  1.0000
  Mo  Mo7       1.0  0.6019399999999999  0.10193999999999992  0.5  1.0000
  Mo  Mo8       1.0  0.39806  0.8980600000000001  0.5  1.0000
  Mo  Mo9       1.0  0.1436  0.6436  0.5  1.0000
  Mo  Mo10      1.0  0.8564  0.35640000000000005  0.5  1.0000
  Mo  Mo11      1.0  0.35640000000000005  0.1436  0.5  1.0000
  Mo  Mo12      1.0  0.6436  0.8564  0.5  1.0000
  Mo  Mo13      1.0  0.3564  0.14359999999999995  0.0  1.0000
  Mo  Mo14      1.0  0.6436  0.8564  0.0  1.0000
  Mo  Mo15      1.0  0.14359999999999995  0.6436  0.0  1.0000
  Mo  Mo16      1.0  0.8564  0.3564  0.0  1.0000
  O   O1        1.0  0.0423  0.7617999999999999  0.0  1.0000
  O   O2        1.0  0.9577  0.2382000000000001  0.0  1.0000
  O   O3        1.0  0.2382000000000001  0.0423  0.0  1.0000
  O   O4        1.0  0.7617999999999999  0.9577  0.0  1.0000
  O   O5        1.0  0.4577  0.26180000000000003  0.5  1.0000
  O   O6        1.0  0.5422999999999999  0.7382000000000001  0.5  1.0000
  O   O7        1.0  0.26180000000000003  0.5422999999999999  0.5  1.0000
  O   O8        1.0  0.7382000000000001  0.4577  0.5  1.0000
  O   O9        1.0  0.7928  0.7072  0.5  1.0000
  O   O10       1.0  0.2072  0.29279999999999995  0.5  1.0000
  O   O11       1.0  0.29279999999999995  0.7928  0.5  1.0000
  O   O12       1.0  0.7072  0.2072  0.5  1.0000
  O   O13       1.0  0.7072  0.20720000000000005  0.0  1.0000
  O   O14       1.0  0.2928  0.7928  0.0  1.0000
  O   O15       1.0  0.20720000000000005  0.2928  0.0  1.0000
  O   O16       1.0  0.7928  0.7072  0.0  1.0000
