data_image0
_chemical_formula_structural       Ni2V4Se8
_chemical_formula_sum              "Ni2 V4 Se8"
_cell_length_a       6.142
_cell_length_b       3.437
_cell_length_c       11.55
_cell_angle_alpha    90.0
_cell_angle_beta     91.5
_cell_angle_gamma    90.0

_space_group_name_H-M_alt    "P 1"
_space_group_IT_number       1

loop_
  _space_group_symop_operation_xyz
  'x, y, z'

loop_
  _atom_site_type_symbol
  _atom_site_label
  _atom_site_symmetry_multiplicity
  _atom_site_fract_x
  _atom_site_fract_y
  _atom_site_fract_z
  _atom_site_occupancy
  Ni  Ni1       1.0  0.0  0.0  0.0  1.0000
  Ni  Ni2       1.0  0.5  0.5  0.0  1.0000
  V   V1        1.0  0.9543  0.0  0.2592  1.0000
  V   V2        1.0  0.04569999999999999  0.0  0.7407999999999999  1.0000
  V   V3        1.0  0.45430000000000004  0.5  0.2592  1.0000
  V   V4        1.0  0.5457000000000001  0.5  0.7407999999999999  1.0000
  Se  Se1       1.0  0.3355000000000001  0.0  0.36249999999999993  1.0000
  Se  Se2       1.0  0.6644999999999999  0.0  0.6375000000000001  1.0000
  Se  Se3       1.0  0.8355000000000001  0.5  0.36249999999999993  1.0000
  Se  Se4       1.0  0.16449999999999992  0.5  0.6375000000000001  1.0000
  Se  Se5       1.0  0.3380000000000001  0.0  0.8892  1.0000
  Se  Se6       1.0  0.6619999999999999  0.0  0.1108  1.0000
  Se  Se7       1.0  0.8380000000000001  0.5  0.8892  1.0000
  Se  Se8       1.0  0.16199999999999992  0.5  0.1108  1.0000
