data_image0
_chemical_formula_structural       Li2N8C12
_chemical_formula_sum              "Li2 N8 C12"
_cell_length_a       5.4328
_cell_length_b       5.41122
_cell_length_c       11.9143
_cell_angle_alpha    90.0
_cell_angle_beta     107.6955
_cell_angle_gamma    90.0

_space_group_name_H-M_alt    "P 1"
_space_group_IT_number       1

loop_
  _space_group_symop_operation_xyz
  'x, y, z'

loop_
  _atom_site_type_symbol
  _atom_site_label
  _atom_site_symmetry_multiplicity
  _atom_site_fract_x
  _atom_site_fract_y
  _atom_site_fract_z
  _atom_site_occupancy
  Li  Li1       1.0  0.5  0.3125  0.7500000000000001  1.0000
  Li  Li2       1.0  0.5  0.6875  0.2499999999999999  1.0000
  N   N1        1.0  0.7660100000000002  0.5685399999999999  0.8565600000000001  1.0000
  N   N2        1.0  0.23398999999999998  0.5685399999999999  0.64344  1.0000
  N   N3        1.0  0.23398999999999998  0.43145999999999995  0.14344  1.0000
  N   N4        1.0  0.7660100000000001  0.43145999999999995  0.35656  1.0000
  N   N5        1.0  0.34652  0.1329  0.8578  1.0000
  N   N6        1.0  0.6534800000000001  0.1329  0.6422  1.0000
  N   N7        1.0  0.6534800000000001  0.8671  0.1422  1.0000
  N   N8        1.0  0.34652000000000005  0.8671  0.35780000000000006  1.0000
  C   C1        1.0  0.8824300000000002  0.7248099999999998  0.8870000000000001  1.0000
  C   C2        1.0  0.11757  0.7248099999999998  0.613  1.0000
  C   C3        1.0  0.11757  0.27519  0.113  1.0000
  C   C4        1.0  0.88243  0.27519  0.387  1.0000
  C   C5        1.0  0.20602000000000006  0.03308  0.88326  1.0000
  C   C6        1.0  0.7939800000000001  0.03308  0.6167400000000002  1.0000
  C   C7        1.0  0.79398  0.9669199999999999  0.11674000000000001  1.0000
  C   C8        1.0  0.20602  0.9669199999999999  0.38326  1.0000
  C   C9        1.0  0.02296000000000005  0.9501999999999999  0.94951  1.0000
  C   C10       1.0  0.97704  0.9501999999999999  0.55049  1.0000
  C   C11       1.0  0.97704  0.04979999999999998  0.05049000000000001  1.0000
  C   C12       1.0  0.022960000000000008  0.04979999999999998  0.44951  1.0000
