data_image0
_chemical_formula_structural       Rb2Cd8O8
_chemical_formula_sum              "Rb2 Cd8 O8"
_cell_length_a       8.957
_cell_length_b       8.957
_cell_length_c       3.6939
_cell_angle_alpha    90.0
_cell_angle_beta     90.0
_cell_angle_gamma    90.0

_space_group_name_H-M_alt    "P 1"
_space_group_IT_number       1

loop_
  _space_group_symop_operation_xyz
  'x, y, z'

loop_
  _atom_site_type_symbol
  _atom_site_label
  _atom_site_symmetry_multiplicity
  _atom_site_fract_x
  _atom_site_fract_y
  _atom_site_fract_z
  _atom_site_occupancy
  Rb  Rb1       1.0  0.0  0.0  0.0  1.0000
  Rb  Rb2       1.0  0.5  0.5  0.5  1.0000
  Cd  Cd1       1.0  0.81832  0.63076  0.0  0.7500
  Cd  Cd2       1.0  0.36924000000000007  0.81832  0.0  0.7500
  Cd  Cd3       1.0  0.18167999999999995  0.36924000000000007  0.0  0.7500
  Cd  Cd4       1.0  0.63076  0.18167999999999995  0.0  0.7500
  Cd  Cd5       1.0  0.31831999999999994  0.13076  0.5  0.7500
  Cd  Cd6       1.0  0.86924  0.31831999999999994  0.5  0.7500
  Cd  Cd7       1.0  0.68168  0.86924  0.5  0.7500
  Cd  Cd8       1.0  0.13076  0.68168  0.5  0.7500
  O   O1        1.0  0.7648  0.3999  0.0  1.0000
  O   O2        1.0  0.6001000000000001  0.7648  0.0  1.0000
  O   O3        1.0  0.2352  0.6001000000000001  0.0  1.0000
  O   O4        1.0  0.3999  0.2352  0.0  1.0000
  O   O5        1.0  0.26480000000000015  0.8998999999999999  0.5  1.0000
  O   O6        1.0  0.10010000000000004  0.26480000000000015  0.5  1.0000
  O   O7        1.0  0.7352  0.10010000000000004  0.5  1.0000
  O   O8        1.0  0.8998999999999999  0.7352  0.5  1.0000
  Na  Na1       1.0  0.81832  0.63076  0.0  0.2500
  Na  Na2       1.0  0.36924000000000007  0.81832  0.0  0.2500
  Na  Na3       1.0  0.18167999999999995  0.36924000000000007  0.0  0.2500
  Na  Na4       1.0  0.63076  0.18167999999999995  0.0  0.2500
  Na  Na5       1.0  0.31831999999999994  0.13076  0.5  0.2500
  Na  Na6       1.0  0.86924  0.31831999999999994  0.5  0.2500
  Na  Na7       1.0  0.68168  0.86924  0.5  0.2500
  Na  Na8       1.0  0.13076  0.68168  0.5  0.2500
