data_image0
_chemical_formula_structural       K6Mg8O16
_chemical_formula_sum              "K6 Mg8 O16"
_cell_length_a       8.957
_cell_length_b       8.957
_cell_length_c       5.281
_cell_angle_alpha    90.0
_cell_angle_beta     90.0
_cell_angle_gamma    90.0

_space_group_name_H-M_alt    "P 1"
_space_group_IT_number       1

loop_
  _space_group_symop_operation_xyz
  'x, y, z'

loop_
  _atom_site_type_symbol
  _atom_site_label
  _atom_site_symmetry_multiplicity
  _atom_site_fract_x
  _atom_site_fract_y
  _atom_site_fract_z
  _atom_site_occupancy
  K   K1        1.0  0.0  0.5  0.291  1.0000
  K   K2        1.0  0.5  0.0  0.291  1.0000
  K   K3        1.0  0.5  0.0  0.7909999999999999  1.0000
  K   K4        1.0  0.0  0.5  0.7909999999999999  1.0000
  K   K5        1.0  0.0  0.0  0.49239999999999995  1.0000
  K   K6        1.0  0.5  0.5  0.9924  1.0000
  Mg  Mg1       1.0  0.1805  0.1805  0.9945  1.0000
  Mg  Mg2       1.0  0.8195  0.8195  0.9945  1.0000
  Mg  Mg3       1.0  0.8195  0.1805  0.9945  1.0000
  Mg  Mg4       1.0  0.1805  0.8195  0.9945  1.0000
  Mg  Mg5       1.0  0.6805  0.6805  0.4945  1.0000
  Mg  Mg6       1.0  0.31950000000000006  0.31950000000000006  0.4945  1.0000
  Mg  Mg7       1.0  0.31950000000000006  0.6805  0.4945  1.0000
  Mg  Mg8       1.0  0.6805  0.31950000000000006  0.4945  1.0000
  O   O1        1.0  0.2144  0.0  0.064  1.0000
  O   O2        1.0  0.7856  0.0  0.064  1.0000
  O   O3        1.0  0.0  0.2144  0.064  1.0000
  O   O4        1.0  0.0  0.7856  0.064  1.0000
  O   O5        1.0  0.7144  0.5  0.564  1.0000
  O   O6        1.0  0.28559999999999997  0.5  0.564  1.0000
  O   O7        1.0  0.5  0.7144  0.564  1.0000
  O   O8        1.0  0.5  0.28559999999999997  0.564  1.0000
  O   O9        1.0  0.2889  0.2889  0.186  1.0000
  O   O10       1.0  0.7111000000000002  0.7111000000000002  0.186  1.0000
  O   O11       1.0  0.7111000000000002  0.2889  0.186  1.0000
  O   O12       1.0  0.2889  0.7111000000000002  0.186  1.0000
  O   O13       1.0  0.7888999999999999  0.7888999999999999  0.6859999999999999  1.0000
  O   O14       1.0  0.2111  0.2111  0.6859999999999999  1.0000
  O   O15       1.0  0.2111  0.7888999999999999  0.6859999999999999  1.0000
  O   O16       1.0  0.7888999999999999  0.2111  0.6859999999999999  1.0000
