data_image0
_chemical_formula_structural       Cu4Zn2Si2S8
_chemical_formula_sum              "Cu4 Zn2 Si2 S8"
_cell_length_a       7.4374
_cell_length_b       6.4001
_cell_length_c       6.1394
_cell_angle_alpha    90.0
_cell_angle_beta     90.0
_cell_angle_gamma    90.0

_space_group_name_H-M_alt    "P 1"
_space_group_IT_number       1

loop_
  _space_group_symop_operation_xyz
  'x, y, z'

loop_
  _atom_site_type_symbol
  _atom_site_label
  _atom_site_symmetry_multiplicity
  _atom_site_fract_x
  _atom_site_fract_y
  _atom_site_fract_z
  _atom_site_occupancy
  Cu  Cu1       1.0  0.24741000000000005  0.17426  0.33723  1.0000
  Cu  Cu2       1.0  0.25259  0.82574  0.83723  1.0000
  Cu  Cu3       1.0  0.74741  0.82574  0.83723  1.0000
  Cu  Cu4       1.0  0.7525900000000001  0.17426  0.33723  1.0000
  Zn  Zn1       1.0  0.0  0.34747  0.84124  1.0000
  Zn  Zn2       1.0  0.5  0.65253  0.34124000000000004  1.0000
  Si  Si1       1.0  0.0  0.6743  0.3451  1.0000
  Si  Si2       1.0  0.5  0.3257  0.8451  1.0000
  S   S1        1.0  0.0  0.3611  0.4632  1.0000
  S   S2        1.0  0.5  0.6389  0.9632000000000001  1.0000
  S   S3        1.0  0.0  0.6784  0.9961  1.0000
  S   S4        1.0  0.5  0.3216  0.4961  1.0000
  S   S5        1.0  0.26269  0.1724  0.9589  1.0000
  S   S6        1.0  0.23731000000000005  0.8276  0.4589  1.0000
  S   S7        1.0  0.76269  0.8276  0.4589  1.0000
  S   S8        1.0  0.7373100000000001  0.1724  0.9589  1.0000
