data_image0
_chemical_formula_structural       Se16Ga8O48Li8
_chemical_formula_sum              "Se16 Ga8 O48 Li8"
_cell_length_a       10.5402
_cell_length_b       10.5402
_cell_length_c       9.828
_cell_angle_alpha    90.0
_cell_angle_beta     90.0
_cell_angle_gamma    90.0

_space_group_name_H-M_alt    "P 1"
_space_group_IT_number       1

loop_
  _space_group_symop_operation_xyz
  'x, y, z'

loop_
  _atom_site_type_symbol
  _atom_site_label
  _atom_site_symmetry_multiplicity
  _atom_site_fract_x
  _atom_site_fract_y
  _atom_site_fract_z
  _atom_site_occupancy
  Se  Se1       1.0  0.44653  0.22561000000000006  0.84046  1.0000
  Se  Se2       1.0  0.5534700000000001  0.77439  0.84046  1.0000
  Se  Se3       1.0  0.22561000000000006  0.5534700000000001  0.15954  1.0000
  Se  Se4       1.0  0.77439  0.44653  0.15954  1.0000
  Se  Se5       1.0  0.053470000000000024  0.22561000000000006  0.90954  1.0000
  Se  Se6       1.0  0.94653  0.77439  0.90954  1.0000
  Se  Se7       1.0  0.27438999999999997  0.5534700000000001  0.59046  1.0000
  Se  Se8       1.0  0.7256100000000001  0.44653  0.59046  1.0000
  Se  Se9       1.0  0.94653  0.7256100000000001  0.34045999999999993  1.0000
  Se  Se10      1.0  0.053470000000000024  0.27438999999999997  0.34045999999999993  1.0000
  Se  Se11      1.0  0.7256100000000001  0.053470000000000024  0.65954  1.0000
  Se  Se12      1.0  0.27438999999999997  0.94653  0.65954  1.0000
  Se  Se13      1.0  0.5534700000000001  0.7256100000000001  0.40954  1.0000
  Se  Se14      1.0  0.44653  0.27438999999999997  0.40954  1.0000
  Se  Se15      1.0  0.77439  0.053470000000000024  0.09046000000000001  1.0000
  Se  Se16      1.0  0.22561000000000006  0.94653  0.09046000000000001  1.0000
  Ga  Ga1       1.0  0.28795  0.25  0.125  1.0000
  Ga  Ga2       1.0  0.7120500000000002  0.7500000000000001  0.125  1.0000
  Ga  Ga3       1.0  0.25  0.7120500000000002  0.8749999999999999  1.0000
  Ga  Ga4       1.0  0.7500000000000001  0.28795  0.8749999999999999  1.0000
  Ga  Ga5       1.0  0.21205000000000002  0.25  0.625  1.0000
  Ga  Ga6       1.0  0.78795  0.7500000000000001  0.625  1.0000
  Ga  Ga7       1.0  0.7500000000000001  0.21205000000000002  0.375  1.0000
  Ga  Ga8       1.0  0.25  0.78795  0.375  1.0000
  O   O1        1.0  0.4266000000000001  0.2941  0.9959  1.0000
  O   O2        1.0  0.5734  0.7059  0.9959  1.0000
  O   O3        1.0  0.2941  0.5734  0.0041  1.0000
  O   O4        1.0  0.7059  0.4266000000000001  0.0041  1.0000
  O   O5        1.0  0.07339999999999998  0.2941  0.7541  1.0000
  O   O6        1.0  0.9266000000000001  0.7059  0.7541  1.0000
  O   O7        1.0  0.20590000000000003  0.5734  0.7459  1.0000
  O   O8        1.0  0.7941000000000001  0.4266000000000001  0.7459  1.0000
  O   O9        1.0  0.9266000000000001  0.7941000000000001  0.4959  1.0000
  O   O10       1.0  0.07339999999999998  0.20590000000000003  0.4959  1.0000
  O   O11       1.0  0.7941000000000001  0.07339999999999998  0.5041  1.0000
  O   O12       1.0  0.20590000000000003  0.9266000000000001  0.5041  1.0000
  O   O13       1.0  0.5734  0.7941000000000001  0.2541  1.0000
  O   O14       1.0  0.4266000000000001  0.20590000000000003  0.2541  1.0000
  O   O15       1.0  0.7059  0.07339999999999998  0.2459  1.0000
  O   O16       1.0  0.2941  0.9266000000000001  0.2459  1.0000
  O   O17       1.0  0.34170000000000006  0.3165  0.7511  1.0000
  O   O18       1.0  0.6582999999999999  0.6835000000000001  0.7511  1.0000
  O   O19       1.0  0.3165  0.6582999999999999  0.2489  1.0000
  O   O20       1.0  0.6835000000000001  0.34170000000000006  0.2489  1.0000
  O   O21       1.0  0.15829999999999994  0.3165  0.9989  1.0000
  O   O22       1.0  0.8417000000000002  0.6835000000000001  0.9989  1.0000
  O   O23       1.0  0.1835  0.6582999999999999  0.5011  1.0000
  O   O24       1.0  0.8165  0.34170000000000006  0.5011  1.0000
  O   O25       1.0  0.8417000000000002  0.8165  0.2511  1.0000
  O   O26       1.0  0.15829999999999994  0.1835  0.2511  1.0000
  O   O27       1.0  0.8165  0.15829999999999994  0.7489  1.0000
  O   O28       1.0  0.1835  0.8417000000000002  0.7489  1.0000
  O   O29       1.0  0.6582999999999999  0.8165  0.4989  1.0000
  O   O30       1.0  0.34170000000000006  0.1835  0.4989  1.0000
  O   O31       1.0  0.6835000000000001  0.15829999999999994  0.0010999999999999899  1.0000
  O   O32       1.0  0.3165  0.8417000000000002  0.0010999999999999899  1.0000
  O   O33       1.0  0.5824000000000001  0.29490000000000005  0.7901  1.0000
  O   O34       1.0  0.4175999999999999  0.7051  0.7901  1.0000
  O   O35       1.0  0.29490000000000005  0.4175999999999999  0.20990000000000003  1.0000
  O   O36       1.0  0.7051  0.5824000000000001  0.20990000000000003  1.0000
  O   O37       1.0  0.9176  0.29490000000000005  0.9598999999999999  1.0000
  O   O38       1.0  0.08240000000000026  0.7051  0.9598999999999999  1.0000
  O   O39       1.0  0.20509999999999998  0.4175999999999999  0.5401  1.0000
  O   O40       1.0  0.7949  0.5824000000000001  0.5401  1.0000
  O   O41       1.0  0.08240000000000026  0.7949  0.29009999999999997  1.0000
  O   O42       1.0  0.9176  0.20509999999999998  0.29009999999999997  1.0000
  O   O43       1.0  0.7949  0.9176  0.7098999999999999  1.0000
  O   O44       1.0  0.20509999999999998  0.08240000000000026  0.7098999999999999  1.0000
  O   O45       1.0  0.4175999999999999  0.7949  0.45990000000000003  1.0000
  O   O46       1.0  0.5824000000000001  0.20509999999999998  0.45990000000000003  1.0000
  O   O47       1.0  0.7051  0.9176  0.04009999999999997  1.0000
  O   O48       1.0  0.29490000000000005  0.08240000000000026  0.04009999999999997  1.0000
  Li  Li1       1.0  0.564  0.25  0.125  1.0000
  Li  Li2       1.0  0.4360000000000001  0.7500000000000001  0.125  1.0000
  Li  Li3       1.0  0.25  0.4360000000000001  0.8749999999999999  1.0000
  Li  Li4       1.0  0.7500000000000001  0.564  0.8749999999999999  1.0000
  Li  Li5       1.0  0.936  0.25  0.625  1.0000
  Li  Li6       1.0  0.06400000000000006  0.7500000000000001  0.625  1.0000
  Li  Li7       1.0  0.7500000000000001  0.936  0.375  1.0000
  Li  Li8       1.0  0.25  0.06400000000000006  0.375  1.0000
