data_image0
_chemical_formula_structural       Mo16K8P24O96
_chemical_formula_sum              "Mo16 K8 P24 O96"
_cell_length_a       17.6398
_cell_length_b       9.1761
_cell_length_c       12.3
_cell_angle_alpha    90.0
_cell_angle_beta     90.0
_cell_angle_gamma    90.0

_space_group_name_H-M_alt    "P 1"
_space_group_IT_number       1

loop_
  _space_group_symop_operation_xyz
  'x, y, z'

loop_
  _atom_site_type_symbol
  _atom_site_label
  _atom_site_symmetry_multiplicity
  _atom_site_fract_x
  _atom_site_fract_y
  _atom_site_fract_z
  _atom_site_occupancy
  Mo  Mo1       1.0  0.12134  0.02863  0.10175  1.0000
  Mo  Mo2       1.0  0.37866  0.52863  0.39825  1.0000
  Mo  Mo3       1.0  0.8786600000000001  0.9713699999999998  0.60175  1.0000
  Mo  Mo4       1.0  0.62134  0.47137  0.89825  1.0000
  Mo  Mo5       1.0  0.8786600000000001  0.9713699999999998  0.89825  1.0000
  Mo  Mo6       1.0  0.62134  0.47137  0.60175  1.0000
  Mo  Mo7       1.0  0.12134  0.02863  0.39825  1.0000
  Mo  Mo8       1.0  0.37866  0.52863  0.10175  1.0000
  Mo  Mo9       1.0  0.1245  0.47390999999999994  0.60141  1.0000
  Mo  Mo10      1.0  0.3755  0.9739099999999999  0.89859  1.0000
  Mo  Mo11      1.0  0.8755000000000001  0.52609  0.10141  1.0000
  Mo  Mo12      1.0  0.6245  0.026090000000000054  0.39859000000000006  1.0000
  Mo  Mo13      1.0  0.8755000000000001  0.52609  0.39859000000000006  1.0000
  Mo  Mo14      1.0  0.6245  0.026090000000000054  0.10141  1.0000
  Mo  Mo15      1.0  0.1245  0.47390999999999994  0.89859  1.0000
  Mo  Mo16      1.0  0.3755  0.9739099999999999  0.60141  1.0000
  K   K1        1.0  0.10031000000000002  0.66689  0.25  1.0000
  K   K2        1.0  0.39969000000000005  0.16688999999999998  0.25  1.0000
  K   K3        1.0  0.8996900000000001  0.33311  0.7500000000000001  1.0000
  K   K4        1.0  0.60031  0.8331099999999999  0.7500000000000001  1.0000
  K   K5        1.0  0.08105000000000001  0.8424699999999998  0.7500000000000001  1.0000
  K   K6        1.0  0.41895000000000004  0.34247000000000005  0.75  1.0000
  K   K7        1.0  0.91895  0.15753000000000006  0.25  1.0000
  K   K8        1.0  0.5810500000000001  0.6575300000000001  0.2499999999999999  1.0000
  P   P1        1.0  0.01489  0.7471999999999999  0.00178  1.0000
  P   P2        1.0  0.48511000000000004  0.24719999999999984  0.49822000000000005  1.0000
  P   P3        1.0  0.9851100000000002  0.25280000000000014  0.50178  1.0000
  P   P4        1.0  0.51489  0.7528000000000001  0.9982200000000001  1.0000
  P   P5        1.0  0.9851100000000002  0.25280000000000014  0.9982200000000001  1.0000
  P   P6        1.0  0.51489  0.7528000000000001  0.50178  1.0000
  P   P7        1.0  0.01489  0.7471999999999999  0.49822000000000005  1.0000
  P   P8        1.0  0.48511000000000004  0.24719999999999984  0.00178  1.0000
  P   P9        1.0  0.20556  0.35957  0.12961  1.0000
  P   P10       1.0  0.29444000000000004  0.8595699999999998  0.37039  1.0000
  P   P11       1.0  0.7944400000000001  0.64043  0.62961  1.0000
  P   P12       1.0  0.70556  0.14042999999999997  0.87039  1.0000
  P   P13       1.0  0.7944400000000001  0.64043  0.87039  1.0000
  P   P14       1.0  0.70556  0.14042999999999997  0.62961  1.0000
  P   P15       1.0  0.20556  0.35957  0.37039  1.0000
  P   P16       1.0  0.29444000000000004  0.8595699999999998  0.12961  1.0000
  P   P17       1.0  0.19862  0.12906  0.63085  1.0000
  P   P18       1.0  0.30138000000000004  0.62906  0.86915  1.0000
  P   P19       1.0  0.80138  0.8709399999999999  0.13085000000000013  1.0000
  P   P20       1.0  0.6986200000000001  0.37094  0.36915  1.0000
  P   P21       1.0  0.80138  0.8709399999999999  0.36915  1.0000
  P   P22       1.0  0.6986200000000001  0.37094  0.13085000000000013  1.0000
  P   P23       1.0  0.19862  0.12906  0.86915  1.0000
  P   P24       1.0  0.30138000000000004  0.62906  0.63085  1.0000
  O   O1        1.0  0.10472000000000002  0.025589999999999998  0.25  1.0000
  O   O2        1.0  0.39527999999999996  0.5255899999999999  0.25  1.0000
  O   O3        1.0  0.8952800000000001  0.97441  0.7500000000000001  1.0000
  O   O4        1.0  0.60472  0.47441  0.7500000000000001  1.0000
  O   O5        1.0  0.10652000000000003  0.48838999999999994  0.7500000000000001  1.0000
  O   O6        1.0  0.39348  0.9883899999999999  0.75  1.0000
  O   O7        1.0  0.8934799999999999  0.5116100000000001  0.25  1.0000
  O   O8        1.0  0.6065200000000001  0.011610000000000063  0.2499999999999999  1.0000
  O   O9        1.0  0.056400000000000006  0.84722  0.08164  1.0000
  O   O10       1.0  0.44360000000000005  0.34722000000000003  0.41836000000000007  1.0000
  O   O11       1.0  0.9436  0.15277999999999997  0.58164  1.0000
  O   O12       1.0  0.5564  0.6527799999999999  0.91836  1.0000
  O   O13       1.0  0.9436  0.15277999999999997  0.91836  1.0000
  O   O14       1.0  0.5564  0.6527799999999999  0.58164  1.0000
  O   O15       1.0  0.056400000000000006  0.84722  0.41836000000000007  1.0000
  O   O16       1.0  0.44360000000000005  0.34722000000000003  0.08164  1.0000
  O   O17       1.0  0.07186000000000002  0.6628599999999999  0.56816  1.0000
  O   O18       1.0  0.42813999999999997  0.16285999999999978  0.93184  1.0000
  O   O19       1.0  0.9281400000000001  0.3371400000000001  0.06816  1.0000
  O   O20       1.0  0.57186  0.8371400000000001  0.43184  1.0000
  O   O21       1.0  0.9281400000000001  0.3371400000000001  0.43184  1.0000
  O   O22       1.0  0.57186  0.8371400000000001  0.06816  1.0000
  O   O23       1.0  0.07186000000000002  0.6628599999999999  0.93184  1.0000
  O   O24       1.0  0.42813999999999997  0.16285999999999978  0.56816  1.0000
  O   O25       1.0  0.1534  0.45461999999999997  0.43975  1.0000
  O   O26       1.0  0.3466  0.95462  0.060250000000000026  1.0000
  O   O27       1.0  0.8466  0.54538  0.93975  1.0000
  O   O28       1.0  0.6534  0.04538000000000003  0.56025  1.0000
  O   O29       1.0  0.8466  0.54538  0.56025  1.0000
  O   O30       1.0  0.6534  0.04538000000000003  0.93975  1.0000
  O   O31       1.0  0.1534  0.45461999999999997  0.060250000000000026  1.0000
  O   O32       1.0  0.3466  0.95462  0.43975  1.0000
  O   O33       1.0  0.14505000000000007  0.0363  0.93745  1.0000
  O   O34       1.0  0.35495  0.5362999999999999  0.56255  1.0000
  O   O35       1.0  0.85495  0.9636999999999999  0.43745000000000006  1.0000
  O   O36       1.0  0.64505  0.4637  0.06255  1.0000
  O   O37       1.0  0.85495  0.9636999999999999  0.06255  1.0000
  O   O38       1.0  0.64505  0.4637  0.43745000000000006  1.0000
  O   O39       1.0  0.14505000000000007  0.0363  0.56255  1.0000
  O   O40       1.0  0.35495  0.5362999999999999  0.93745  1.0000
  O   O41       1.0  0.19308  0.19962  0.1184  1.0000
  O   O42       1.0  0.30691999999999997  0.69962  0.38160000000000005  1.0000
  O   O43       1.0  0.8069200000000001  0.8003799999999999  0.6184000000000001  1.0000
  O   O44       1.0  0.69308  0.30038  0.8815999999999999  1.0000
  O   O45       1.0  0.8069200000000001  0.8003799999999999  0.8815999999999999  1.0000
  O   O46       1.0  0.69308  0.30038  0.6184000000000001  1.0000
  O   O47       1.0  0.19308  0.19962  0.38160000000000005  1.0000
  O   O48       1.0  0.30691999999999997  0.69962  0.1184  1.0000
  O   O49       1.0  0.18794000000000005  0.2925  0.62266  1.0000
  O   O50       1.0  0.31206000000000006  0.7925  0.87734  1.0000
  O   O51       1.0  0.8120600000000001  0.7075  0.12265999999999999  1.0000
  O   O52       1.0  0.68794  0.2075  0.37734  1.0000
  O   O53       1.0  0.8120600000000001  0.7075  0.37734  1.0000
  O   O54       1.0  0.68794  0.2075  0.12265999999999999  1.0000
  O   O55       1.0  0.18794000000000005  0.2925  0.87734  1.0000
  O   O56       1.0  0.31206000000000006  0.7925  0.62266  1.0000
  O   O57       1.0  0.21839  0.596  0.61991  1.0000
  O   O58       1.0  0.28161  0.09600000000000007  0.88009  1.0000
  O   O59       1.0  0.7816100000000001  0.404  0.11990999999999996  1.0000
  O   O60       1.0  0.71839  0.9039999999999999  0.38009000000000004  1.0000
  O   O61       1.0  0.7816100000000001  0.404  0.38009000000000004  1.0000
  O   O62       1.0  0.71839  0.9039999999999999  0.11990999999999996  1.0000
  O   O63       1.0  0.21839  0.596  0.88009  1.0000
  O   O64       1.0  0.28161  0.09600000000000007  0.61991  1.0000
  O   O65       1.0  0.21117  0.8889099999999999  0.11836  1.0000
  O   O66       1.0  0.28883000000000003  0.38891000000000003  0.38164  1.0000
  O   O67       1.0  0.78883  0.11108999999999998  0.61836  1.0000
  O   O68       1.0  0.71117  0.61109  0.88164  1.0000
  O   O69       1.0  0.78883  0.11108999999999998  0.88164  1.0000
  O   O70       1.0  0.71117  0.61109  0.61836  1.0000
  O   O71       1.0  0.21117  0.8889099999999999  0.38164  1.0000
  O   O72       1.0  0.28883000000000003  0.38891000000000003  0.11836  1.0000
  O   O73       1.0  0.03343  0.16459  0.07897  1.0000
  O   O74       1.0  0.46657000000000004  0.6645899999999999  0.42103  1.0000
  O   O75       1.0  0.9665700000000002  0.83541  0.57897  1.0000
  O   O76       1.0  0.5334300000000001  0.33541  0.9210300000000001  1.0000
  O   O77       1.0  0.9665700000000002  0.83541  0.9210300000000001  1.0000
  O   O78       1.0  0.5334300000000001  0.33541  0.57897  1.0000
  O   O79       1.0  0.03343  0.16459  0.42103  1.0000
  O   O80       1.0  0.46657000000000004  0.6645899999999999  0.07897  1.0000
  O   O81       1.0  0.029900000000000003  0.35452  0.57243  1.0000
  O   O82       1.0  0.4701000000000001  0.8545199999999998  0.9275700000000001  1.0000
  O   O83       1.0  0.9701000000000001  0.64548  0.07243  1.0000
  O   O84       1.0  0.5299  0.14548  0.42757000000000006  1.0000
  O   O85       1.0  0.9701000000000001  0.64548  0.42757000000000006  1.0000
  O   O86       1.0  0.5299  0.14548  0.07243  1.0000
  O   O87       1.0  0.029900000000000003  0.35452  0.9275700000000001  1.0000
  O   O88       1.0  0.4701000000000001  0.8545199999999998  0.57243  1.0000
  O   O89       1.0  0.17997  0.40904  0.25  1.0000
  O   O90       1.0  0.32003000000000004  0.9090400000000001  0.25  1.0000
  O   O91       1.0  0.82003  0.5909599999999999  0.7500000000000001  1.0000
  O   O92       1.0  0.6799700000000001  0.09095999999999999  0.7500000000000001  1.0000
  O   O93       1.0  0.17094  0.08079  0.7500000000000001  1.0000
  O   O94       1.0  0.32906  0.58079  0.75  1.0000
  O   O95       1.0  0.82906  0.9192099999999999  0.25  1.0000
  O   O96       1.0  0.6709400000000001  0.41920999999999997  0.2499999999999999  1.0000
