data_image0
_chemical_formula_structural       Cu3NbS4
_chemical_formula_sum              "Cu3 Nb1 S4"
_cell_length_a       5.5001
_cell_length_b       5.5001
_cell_length_c       5.5001
_cell_angle_alpha    90.0
_cell_angle_beta     90.0
_cell_angle_gamma    90.0

_space_group_name_H-M_alt    "P 1"
_space_group_IT_number       1

loop_
  _space_group_symop_operation_xyz
  'x, y, z'

loop_
  _atom_site_type_symbol
  _atom_site_label
  _atom_site_symmetry_multiplicity
  _atom_site_fract_x
  _atom_site_fract_y
  _atom_site_fract_z
  _atom_site_occupancy
  Cu  Cu1       1.0  0.4999999999999999  0.0  0.0  1.0000
  Cu  Cu2       1.0  0.0  0.4999999999999999  0.0  1.0000
  Cu  Cu3       1.0  0.0  0.0  0.4999999999999999  1.0000
  Nb  Nb1       1.0  0.0  0.0  0.0  1.0000
  S   S1        1.0  0.2426  0.2426  0.2426  1.0000
  S   S2        1.0  0.2426  0.7574  0.7574  1.0000
  S   S3        1.0  0.7574  0.2426  0.7574  1.0000
  S   S4        1.0  0.7574  0.7574  0.2426  1.0000
