data_image0
_chemical_formula_structural       Fe12S12
_chemical_formula_sum              "Fe12 S12"
_cell_length_a       5.968
_cell_length_b       5.967999999999999
_cell_length_c       11.74
_cell_angle_alpha    90.0
_cell_angle_beta     90.0
_cell_angle_gamma    119.99999999999999

_space_group_name_H-M_alt    "P 1"
_space_group_IT_number       1

loop_
  _space_group_symop_operation_xyz
  'x, y, z'

loop_
  _atom_site_type_symbol
  _atom_site_label
  _atom_site_symmetry_multiplicity
  _atom_site_fract_x
  _atom_site_fract_y
  _atom_site_fract_z
  _atom_site_occupancy
  Fe  Fe1       1.0  0.35999999999999993  0.04  0.125  1.0000
  Fe  Fe2       1.0  0.9600000000000002  0.32  0.125  1.0000
  Fe  Fe3       1.0  0.68  0.6400000000000001  0.125  1.0000
  Fe  Fe4       1.0  0.35999999999999993  0.04  0.375  1.0000
  Fe  Fe5       1.0  0.9600000000000002  0.32  0.375  1.0000
  Fe  Fe6       1.0  0.68  0.6400000000000001  0.375  1.0000
  Fe  Fe7       1.0  0.04  0.35999999999999993  0.625  1.0000
  Fe  Fe8       1.0  0.32  0.9600000000000001  0.625  1.0000
  Fe  Fe9       1.0  0.6400000000000002  0.6800000000000002  0.625  1.0000
  Fe  Fe10      1.0  0.04  0.35999999999999993  0.875  1.0000
  Fe  Fe11      1.0  0.32  0.9600000000000001  0.875  1.0000
  Fe  Fe12      1.0  0.6400000000000002  0.6800000000000002  0.875  1.0000
  S   S1        1.0  0.0  0.0  0.0  1.0000
  S   S2        1.0  0.0  0.0  0.5  1.0000
  S   S3        1.0  0.3333  0.6667  0.016  1.0000
  S   S4        1.0  0.3333  0.6667  0.48399999999999993  1.0000
  S   S5        1.0  0.6667  0.33330000000000004  0.516  1.0000
  S   S6        1.0  0.6667  0.33330000000000004  0.984  1.0000
  S   S7        1.0  0.6667  0.0  0.25  1.0000
  S   S8        1.0  8.874759729606848e-18  0.6667  0.25  1.0000
  S   S9        1.0  0.33330000000000004  0.33330000000000004  0.25  1.0000
  S   S10       1.0  8.874759729606848e-18  0.6667  0.75  1.0000
  S   S11       1.0  0.6667  0.0  0.75  1.0000
  S   S12       1.0  0.33330000000000004  0.33330000000000004  0.75  1.0000
