data_image0
_chemical_formula_structural       Li8Ti8P12O48
_chemical_formula_sum              "Li8 Ti8 P12 O48"
_cell_length_a       12.0344
_cell_length_b       8.5795
_cell_length_c       8.6794
_cell_angle_alpha    90.0
_cell_angle_beta     90.0
_cell_angle_gamma    90.0

_space_group_name_H-M_alt    "P 1"
_space_group_IT_number       1

loop_
  _space_group_symop_operation_xyz
  'x, y, z'

loop_
  _atom_site_type_symbol
  _atom_site_label
  _atom_site_symmetry_multiplicity
  _atom_site_fract_x
  _atom_site_fract_y
  _atom_site_fract_z
  _atom_site_occupancy
  Li  Li1       1.0  0.1812  0.2861  0.2191  1.0000
  Li  Li2       1.0  0.3188  0.21389999999999998  0.7191  1.0000
  Li  Li3       1.0  0.6812  0.21389999999999998  0.7809  1.0000
  Li  Li4       1.0  0.8188  0.2861  0.28090000000000004  1.0000
  Li  Li5       1.0  0.8188  0.7139  0.7809  1.0000
  Li  Li6       1.0  0.6812  0.7861  0.28090000000000004  1.0000
  Li  Li7       1.0  0.3188  0.7861  0.2191  1.0000
  Li  Li8       1.0  0.1812  0.7139  0.7191  1.0000
  Ti  Ti1       1.0  0.38824  0.25295  0.03788  1.0000
  Ti  Ti2       1.0  0.11176000000000003  0.24705  0.53788  1.0000
  Ti  Ti3       1.0  0.8882399999999999  0.24705  0.9621199999999999  1.0000
  Ti  Ti4       1.0  0.6117600000000001  0.25295  0.46212000000000003  1.0000
  Ti  Ti5       1.0  0.6117600000000001  0.74705  0.9621199999999999  1.0000
  Ti  Ti6       1.0  0.8882399999999999  0.75295  0.46212000000000003  1.0000
  Ti  Ti7       1.0  0.11176000000000003  0.75295  0.03788  1.0000
  Ti  Ti8       1.0  0.38824  0.74705  0.53788  1.0000
  P   P1        1.0  0.5  0.5399  0.25  1.0000
  P   P2        1.0  0.0  0.9601  0.75  1.0000
  P   P3        1.0  0.5  0.46009999999999995  0.75  1.0000
  P   P4        1.0  0.0  0.03990000000000005  0.25  1.0000
  P   P5        1.0  0.3524600000000001  0.10469  0.39437  1.0000
  P   P6        1.0  0.14753999999999995  0.39530999999999994  0.89437  1.0000
  P   P7        1.0  0.85246  0.39530999999999994  0.60563  1.0000
  P   P8        1.0  0.64754  0.10469  0.10563  1.0000
  P   P9        1.0  0.64754  0.89531  0.60563  1.0000
  P   P10       1.0  0.85246  0.60469  0.10563  1.0000
  P   P11       1.0  0.14753999999999995  0.60469  0.39437  1.0000
  P   P12       1.0  0.3524600000000001  0.89531  0.89437  1.0000
  O   O1        1.0  0.42  0.3537  0.8372999999999999  1.0000
  O   O2        1.0  0.08000000000000002  0.14629999999999999  0.3373  1.0000
  O   O3        1.0  0.92  0.14629999999999999  0.1627  1.0000
  O   O4        1.0  0.5800000000000001  0.3537  0.6627000000000002  1.0000
  O   O5        1.0  0.5800000000000001  0.6463  0.1627  1.0000
  O   O6        1.0  0.92  0.8537  0.6627000000000002  1.0000
  O   O7        1.0  0.08000000000000002  0.8537  0.8372999999999999  1.0000
  O   O8        1.0  0.42  0.6463  0.3373  1.0000
  O   O9        1.0  0.43040000000000006  0.4408  0.1413  1.0000
  O   O10       1.0  0.06959999999999994  0.059199999999999975  0.6413  1.0000
  O   O11       1.0  0.9304000000000002  0.059199999999999975  0.8587  1.0000
  O   O12       1.0  0.5695999999999999  0.4408  0.3587  1.0000
  O   O13       1.0  0.5695999999999999  0.5591999999999999  0.8587  1.0000
  O   O14       1.0  0.9304000000000002  0.9408000000000001  0.3587  1.0000
  O   O15       1.0  0.06959999999999994  0.9408000000000001  0.1413  1.0000
  O   O16       1.0  0.43040000000000006  0.5591999999999999  0.6413  1.0000
  O   O17       1.0  0.5306  0.1556  0.0618  1.0000
  O   O18       1.0  0.9694  0.34440000000000004  0.5618  1.0000
  O   O19       1.0  0.03059999999999996  0.34440000000000004  0.9382  1.0000
  O   O20       1.0  0.46940000000000004  0.1556  0.4382  1.0000
  O   O21       1.0  0.46940000000000004  0.8444  0.9382  1.0000
  O   O22       1.0  0.03059999999999996  0.6556  0.4382  1.0000
  O   O23       1.0  0.9694  0.6556  0.0618  1.0000
  O   O24       1.0  0.5306  0.8444  0.5618  1.0000
  O   O25       1.0  0.2282  0.3271  0.013  1.0000
  O   O26       1.0  0.27180000000000004  0.17289999999999997  0.513  1.0000
  O   O27       1.0  0.7282000000000001  0.17289999999999997  0.987  1.0000
  O   O28       1.0  0.7718  0.3271  0.48700000000000004  1.0000
  O   O29       1.0  0.7718  0.6729  0.987  1.0000
  O   O30       1.0  0.7282000000000001  0.8271  0.48700000000000004  1.0000
  O   O31       1.0  0.27180000000000004  0.8271  0.013  1.0000
  O   O32       1.0  0.2282  0.6729  0.513  1.0000
  O   O33       1.0  0.3221  0.16289999999999996  0.23219999999999996  1.0000
  O   O34       1.0  0.1779  0.33710000000000007  0.7322  1.0000
  O   O35       1.0  0.8221  0.33710000000000007  0.7678  1.0000
  O   O36       1.0  0.6779000000000001  0.16289999999999996  0.26780000000000004  1.0000
  O   O37       1.0  0.6779000000000001  0.8371000000000001  0.7678  1.0000
  O   O38       1.0  0.8221  0.6628999999999999  0.26780000000000004  1.0000
  O   O39       1.0  0.1779  0.6628999999999999  0.23219999999999996  1.0000
  O   O40       1.0  0.3221  0.8371000000000001  0.7322  1.0000
  O   O41       1.0  0.34430000000000005  0.0729  0.896  1.0000
  O   O42       1.0  0.15569999999999995  0.4271  0.396  1.0000
  O   O43       1.0  0.8443  0.4271  0.104  1.0000
  O   O44       1.0  0.6557  0.0729  0.604  1.0000
  O   O45       1.0  0.6557  0.9271  0.104  1.0000
  O   O46       1.0  0.8443  0.5729  0.604  1.0000
  O   O47       1.0  0.15569999999999995  0.5729  0.896  1.0000
  O   O48       1.0  0.34430000000000005  0.9271  0.396  1.0000
