data_image0
_chemical_formula_structural       Pb4Mo4
_chemical_formula_sum              "Pb4 Mo4"
_cell_length_a       5.47
_cell_length_b       5.47
_cell_length_c       12.08
_cell_angle_alpha    90.0
_cell_angle_beta     90.0
_cell_angle_gamma    90.0

_space_group_name_H-M_alt    "P 1"
_space_group_IT_number       1

loop_
  _space_group_symop_operation_xyz
  'x, y, z'

loop_
  _atom_site_type_symbol
  _atom_site_label
  _atom_site_symmetry_multiplicity
  _atom_site_fract_x
  _atom_site_fract_y
  _atom_site_fract_z
  _atom_site_occupancy
  Pb  Pb1       1.0  0.0  0.0  0.5  1.0000
  Pb  Pb2       1.0  0.0  0.49999999999999994  0.7500000000000001  1.0000
  Pb  Pb3       1.0  0.49999999999999994  0.49999999999999994  0.0  1.0000
  Pb  Pb4       1.0  0.49999999999999994  0.0  0.25  1.0000
  Mo  Mo1       1.0  0.0  0.0  0.0  1.0000
  Mo  Mo2       1.0  0.0  0.49999999999999994  0.25  1.0000
  Mo  Mo3       1.0  0.49999999999999994  0.49999999999999994  0.5  1.0000
  Mo  Mo4       1.0  0.49999999999999994  0.0  0.7500000000000001  1.0000
