data_image0
_chemical_formula_structural       Ti4Si8
_chemical_formula_sum              "Ti4 Si8"
_cell_length_a       4.428
_cell_length_b       4.779
_cell_length_c       9.078
_cell_angle_alpha    90.0
_cell_angle_beta     90.0
_cell_angle_gamma    90.0

_space_group_name_H-M_alt    "P 1"
_space_group_IT_number       1

loop_
  _space_group_symop_operation_xyz
  'x, y, z'

loop_
  _atom_site_type_symbol
  _atom_site_label
  _atom_site_symmetry_multiplicity
  _atom_site_fract_x
  _atom_site_fract_y
  _atom_site_fract_z
  _atom_site_occupancy
  Ti  Ti1       1.0  0.0  0.0  0.0  1.0000
  Ti  Ti2       1.0  0.0  0.5  0.5  1.0000
  Ti  Ti3       1.0  0.5  0.0  0.5  1.0000
  Ti  Ti4       1.0  0.5  0.5  0.0  1.0000
  Si  Si1       1.0  0.0  0.0  0.322  1.0000
  Si  Si2       1.0  0.0  0.0  0.6779999999999999  1.0000
  Si  Si3       1.0  0.0  0.5  0.8220000000000001  1.0000
  Si  Si4       1.0  0.5  0.0  0.8220000000000001  1.0000
  Si  Si5       1.0  0.5  0.5  0.322  1.0000
  Si  Si6       1.0  0.0  0.5  0.178  1.0000
  Si  Si7       1.0  0.5  0.0  0.178  1.0000
  Si  Si8       1.0  0.5  0.5  0.6779999999999999  1.0000
