data_image0
_chemical_formula_structural       Te184In96
_chemical_formula_sum              "Te184 In96"
_cell_length_a       27.762
_cell_length_b       27.762
_cell_length_c       36.444
_cell_angle_alpha    90.0
_cell_angle_beta     90.0
_cell_angle_gamma    90.0

_space_group_name_H-M_alt    "P 1"
_space_group_IT_number       1

loop_
  _space_group_symop_operation_xyz
  'x, y, z'

loop_
  _atom_site_type_symbol
  _atom_site_label
  _atom_site_symmetry_multiplicity
  _atom_site_fract_x
  _atom_site_fract_y
  _atom_site_fract_z
  _atom_site_occupancy
  Te  Te1       1.0  0.23323000000000005  0.11784  0.09418  1.0000
  Te  Te2       1.0  0.11784  0.76677  0.90582  1.0000
  Te  Te3       1.0  0.76677  0.8821600000000002  0.09418  1.0000
  Te  Te4       1.0  0.8821600000000002  0.23323000000000005  0.90582  1.0000
  Te  Te5       1.0  0.76677  0.11784  0.09418  1.0000
  Te  Te6       1.0  0.11784  0.23323000000000005  0.90582  1.0000
  Te  Te7       1.0  0.23323000000000005  0.8821600000000002  0.09418  1.0000
  Te  Te8       1.0  0.8821600000000002  0.76677  0.90582  1.0000
  Te  Te9       1.0  0.7332300000000002  0.61784  0.59418  1.0000
  Te  Te10      1.0  0.61784  0.26676999999999995  0.40582  1.0000
  Te  Te11      1.0  0.26676999999999995  0.38216  0.59418  1.0000
  Te  Te12      1.0  0.38216  0.7332300000000002  0.40582  1.0000
  Te  Te13      1.0  0.26676999999999995  0.61784  0.59418  1.0000
  Te  Te14      1.0  0.61784  0.7332300000000002  0.40582  1.0000
  Te  Te15      1.0  0.7332300000000002  0.38216  0.59418  1.0000
  Te  Te16      1.0  0.38216  0.26676999999999995  0.40582  1.0000
  Te  Te17      1.0  0.3267800000000001  0.13363000000000003  0.99285  1.0000
  Te  Te18      1.0  0.13363000000000003  0.67322  0.007150000000000001  1.0000
  Te  Te19      1.0  0.67322  0.8663700000000001  0.99285  1.0000
  Te  Te20      1.0  0.8663700000000001  0.3267800000000001  0.007150000000000001  1.0000
  Te  Te21      1.0  0.67322  0.13363000000000003  0.99285  1.0000
  Te  Te22      1.0  0.13363000000000003  0.3267800000000001  0.007150000000000001  1.0000
  Te  Te23      1.0  0.3267800000000001  0.8663700000000001  0.99285  1.0000
  Te  Te24      1.0  0.8663700000000001  0.67322  0.007150000000000001  1.0000
  Te  Te25      1.0  0.8267800000000001  0.63363  0.49285000000000007  1.0000
  Te  Te26      1.0  0.63363  0.17321999999999996  0.50715  1.0000
  Te  Te27      1.0  0.17321999999999996  0.36637000000000003  0.49285000000000007  1.0000
  Te  Te28      1.0  0.36637000000000003  0.8267800000000001  0.50715  1.0000
  Te  Te29      1.0  0.17321999999999996  0.63363  0.49285000000000007  1.0000
  Te  Te30      1.0  0.63363  0.8267800000000001  0.50715  1.0000
  Te  Te31      1.0  0.8267800000000001  0.36637000000000003  0.49285000000000007  1.0000
  Te  Te32      1.0  0.36637000000000003  0.17321999999999996  0.50715  1.0000
  Te  Te33      1.0  0.24444000000000005  0.0  0.17805  1.0000
  Te  Te34      1.0  0.0  0.75556  0.82195  1.0000
  Te  Te35      1.0  0.75556  0.0  0.17805  1.0000
  Te  Te36      1.0  0.0  0.24444000000000005  0.82195  1.0000
  Te  Te37      1.0  0.7444400000000001  0.5  0.67805  1.0000
  Te  Te38      1.0  0.5  0.25556  0.32194999999999996  1.0000
  Te  Te39      1.0  0.25556  0.5  0.67805  1.0000
  Te  Te40      1.0  0.5  0.7444400000000001  0.32194999999999996  1.0000
  Te  Te41      1.0  0.11446000000000003  0.23372  0.10328  1.0000
  Te  Te42      1.0  0.23372  0.8855400000000001  0.8967200000000001  1.0000
  Te  Te43      1.0  0.8855400000000001  0.7662800000000001  0.10328  1.0000
  Te  Te44      1.0  0.7662800000000001  0.11446000000000003  0.8967200000000001  1.0000
  Te  Te45      1.0  0.8855400000000001  0.23372  0.10328  1.0000
  Te  Te46      1.0  0.23372  0.11446000000000003  0.8967200000000001  1.0000
  Te  Te47      1.0  0.11446000000000003  0.7662800000000001  0.10328  1.0000
  Te  Te48      1.0  0.7662800000000001  0.8855400000000001  0.8967200000000001  1.0000
  Te  Te49      1.0  0.61446  0.73372  0.60328  1.0000
  Te  Te50      1.0  0.73372  0.38554  0.39672  1.0000
  Te  Te51      1.0  0.38554  0.26627999999999996  0.60328  1.0000
  Te  Te52      1.0  0.26627999999999996  0.61446  0.39672  1.0000
  Te  Te53      1.0  0.38554  0.73372  0.60328  1.0000
  Te  Te54      1.0  0.73372  0.61446  0.39672  1.0000
  Te  Te55      1.0  0.61446  0.26627999999999996  0.60328  1.0000
  Te  Te56      1.0  0.26627999999999996  0.38554  0.39672  1.0000
  Te  Te57      1.0  0.37647000000000014  0.05076000000000001  0.10505  1.0000
  Te  Te58      1.0  0.05076000000000001  0.62353  0.89495  1.0000
  Te  Te59      1.0  0.62353  0.9492400000000001  0.10505  1.0000
  Te  Te60      1.0  0.9492400000000001  0.37647000000000014  0.89495  1.0000
  Te  Te61      1.0  0.62353  0.05076000000000001  0.10505  1.0000
  Te  Te62      1.0  0.05076000000000001  0.37647000000000014  0.89495  1.0000
  Te  Te63      1.0  0.37647000000000014  0.9492400000000001  0.10505  1.0000
  Te  Te64      1.0  0.9492400000000001  0.62353  0.89495  1.0000
  Te  Te65      1.0  0.8764700000000001  0.55076  0.60505  1.0000
  Te  Te66      1.0  0.55076  0.12352999999999993  0.39495  1.0000
  Te  Te67      1.0  0.12352999999999993  0.44924000000000003  0.60505  1.0000
  Te  Te68      1.0  0.44924000000000003  0.8764700000000001  0.39495  1.0000
  Te  Te69      1.0  0.12352999999999993  0.55076  0.60505  1.0000
  Te  Te70      1.0  0.55076  0.8764700000000001  0.39495  1.0000
  Te  Te71      1.0  0.8764700000000001  0.44924000000000003  0.60505  1.0000
  Te  Te72      1.0  0.44924000000000003  0.12352999999999993  0.39495  1.0000
  Te  Te73      1.0  0.388  0.18185000000000004  0.09861  1.0000
  Te  Te74      1.0  0.18185000000000004  0.6120000000000001  0.9013900000000001  1.0000
  Te  Te75      1.0  0.6120000000000001  0.8181499999999999  0.09861  1.0000
  Te  Te76      1.0  0.8181499999999999  0.388  0.9013900000000001  1.0000
  Te  Te77      1.0  0.6120000000000001  0.18185000000000004  0.09861  1.0000
  Te  Te78      1.0  0.18185000000000004  0.388  0.9013900000000001  1.0000
  Te  Te79      1.0  0.388  0.8181499999999999  0.09861  1.0000
  Te  Te80      1.0  0.8181499999999999  0.6120000000000001  0.9013900000000001  1.0000
  Te  Te81      1.0  0.888  0.6818500000000002  0.59861  1.0000
  Te  Te82      1.0  0.6818500000000002  0.11199999999999999  0.40139  1.0000
  Te  Te83      1.0  0.11199999999999999  0.31815  0.59861  1.0000
  Te  Te84      1.0  0.31815  0.888  0.40139  1.0000
  Te  Te85      1.0  0.11199999999999999  0.6818500000000002  0.59861  1.0000
  Te  Te86      1.0  0.6818500000000002  0.888  0.40139  1.0000
  Te  Te87      1.0  0.888  0.31815  0.59861  1.0000
  Te  Te88      1.0  0.31815  0.11199999999999999  0.40139  1.0000
  Te  Te89      1.0  0.32527  0.12909  0.20228  1.0000
  Te  Te90      1.0  0.12909  0.6747300000000002  0.79772  1.0000
  Te  Te91      1.0  0.6747300000000002  0.87091  0.20228  1.0000
  Te  Te92      1.0  0.87091  0.32527  0.79772  1.0000
  Te  Te93      1.0  0.6747300000000002  0.12909  0.20228  1.0000
  Te  Te94      1.0  0.12909  0.32527  0.79772  1.0000
  Te  Te95      1.0  0.32527  0.87091  0.20228  1.0000
  Te  Te96      1.0  0.87091  0.6747300000000002  0.79772  1.0000
  Te  Te97      1.0  0.82527  0.62909  0.70228  1.0000
  Te  Te98      1.0  0.62909  0.17473000000000002  0.29772  1.0000
  Te  Te99      1.0  0.17473000000000002  0.37090999999999996  0.70228  1.0000
  Te  Te100     1.0  0.37090999999999996  0.82527  0.29772  1.0000
  Te  Te101     1.0  0.17473000000000002  0.62909  0.70228  1.0000
  Te  Te102     1.0  0.62909  0.82527  0.29772  1.0000
  Te  Te103     1.0  0.82527  0.37090999999999996  0.70228  1.0000
  Te  Te104     1.0  0.37090999999999996  0.17473000000000002  0.29772  1.0000
  Te  Te105     1.0  0.15627  0.14015  0.19765  1.0000
  Te  Te106     1.0  0.14015  0.8437300000000001  0.80235  1.0000
  Te  Te107     1.0  0.8437300000000001  0.85985  0.19765  1.0000
  Te  Te108     1.0  0.85985  0.15627  0.80235  1.0000
  Te  Te109     1.0  0.8437300000000001  0.14015  0.19765  1.0000
  Te  Te110     1.0  0.14015  0.15627  0.80235  1.0000
  Te  Te111     1.0  0.15627  0.85985  0.19765  1.0000
  Te  Te112     1.0  0.85985  0.8437300000000001  0.80235  1.0000
  Te  Te113     1.0  0.65627  0.6401500000000001  0.69765  1.0000
  Te  Te114     1.0  0.6401500000000001  0.34373  0.30235  1.0000
  Te  Te115     1.0  0.34373  0.35985000000000006  0.69765  1.0000
  Te  Te116     1.0  0.35985000000000006  0.65627  0.30235  1.0000
  Te  Te117     1.0  0.34373  0.6401500000000001  0.69765  1.0000
  Te  Te118     1.0  0.6401500000000001  0.65627  0.30235  1.0000
  Te  Te119     1.0  0.65627  0.35985000000000006  0.69765  1.0000
  Te  Te120     1.0  0.35985000000000006  0.34373  0.30235  1.0000
  Te  Te121     1.0  0.15981  0.15981  0.0  1.0000
  Te  Te122     1.0  0.15981  0.8401900000000001  0.0  1.0000
  Te  Te123     1.0  0.8401900000000001  0.8401900000000001  0.0  1.0000
  Te  Te124     1.0  0.8401900000000001  0.15981  0.0  1.0000
  Te  Te125     1.0  0.65981  0.65981  0.5  1.0000
  Te  Te126     1.0  0.65981  0.34019  0.5  1.0000
  Te  Te127     1.0  0.34019  0.34019  0.5  1.0000
  Te  Te128     1.0  0.34019  0.65981  0.5  1.0000
  Te  Te129     1.0  0.22759000000000001  0.09916  0.29914  1.0000
  Te  Te130     1.0  0.09916  0.77241  0.70086  1.0000
  Te  Te131     1.0  0.77241  0.90084  0.29914  1.0000
  Te  Te132     1.0  0.90084  0.22759000000000001  0.70086  1.0000
  Te  Te133     1.0  0.77241  0.09916  0.29914  1.0000
  Te  Te134     1.0  0.09916  0.22759000000000001  0.70086  1.0000
  Te  Te135     1.0  0.22759000000000001  0.90084  0.29914  1.0000
  Te  Te136     1.0  0.90084  0.77241  0.70086  1.0000
  Te  Te137     1.0  0.7275900000000001  0.5991600000000001  0.79914  1.0000
  Te  Te138     1.0  0.5991600000000001  0.27241000000000004  0.20085999999999998  1.0000
  Te  Te139     1.0  0.27241000000000004  0.40084  0.79914  1.0000
  Te  Te140     1.0  0.40084  0.7275900000000001  0.20085999999999998  1.0000
  Te  Te141     1.0  0.27241000000000004  0.5991600000000001  0.79914  1.0000
  Te  Te142     1.0  0.5991600000000001  0.7275900000000001  0.20085999999999998  1.0000
  Te  Te143     1.0  0.7275900000000001  0.40084  0.79914  1.0000
  Te  Te144     1.0  0.40084  0.27241000000000004  0.20085999999999998  1.0000
  Te  Te145     1.0  0.25631  0.26166  0.14972  1.0000
  Te  Te146     1.0  0.26166  0.7436900000000001  0.85028  1.0000
  Te  Te147     1.0  0.7436900000000001  0.73834  0.14972  1.0000
  Te  Te148     1.0  0.73834  0.25631  0.85028  1.0000
  Te  Te149     1.0  0.7436900000000001  0.26166  0.14972  1.0000
  Te  Te150     1.0  0.26166  0.25631  0.85028  1.0000
  Te  Te151     1.0  0.25631  0.73834  0.14972  1.0000
  Te  Te152     1.0  0.73834  0.7436900000000001  0.85028  1.0000
  Te  Te153     1.0  0.75631  0.7616600000000001  0.64972  1.0000
  Te  Te154     1.0  0.7616600000000001  0.24369000000000005  0.35028000000000004  1.0000
  Te  Te155     1.0  0.24369000000000005  0.23834000000000002  0.64972  1.0000
  Te  Te156     1.0  0.23834000000000002  0.75631  0.35028000000000004  1.0000
  Te  Te157     1.0  0.24369000000000005  0.7616600000000001  0.64972  1.0000
  Te  Te158     1.0  0.7616600000000001  0.75631  0.35028000000000004  1.0000
  Te  Te159     1.0  0.75631  0.23834000000000002  0.64972  1.0000
  Te  Te160     1.0  0.23834000000000002  0.24369000000000005  0.35028000000000004  1.0000
  Te  Te161     1.0  0.24718  0.25282  0.25  1.0000
  Te  Te162     1.0  0.25282  0.7528200000000002  0.75  1.0000
  Te  Te163     1.0  0.7528200000000002  0.74718  0.25  1.0000
  Te  Te164     1.0  0.74718  0.24718  0.75  1.0000
  Te  Te165     1.0  0.7528200000000002  0.25282  0.25  1.0000
  Te  Te166     1.0  0.25282  0.24718  0.75  1.0000
  Te  Te167     1.0  0.24718  0.74718  0.25  1.0000
  Te  Te168     1.0  0.74718  0.7528200000000002  0.75  1.0000
  Te  Te169     1.0  0.26471  0.26524  0.05246  1.0000
  Te  Te170     1.0  0.26524  0.73529  0.9475399999999999  1.0000
  Te  Te171     1.0  0.73529  0.7347600000000001  0.05246  1.0000
  Te  Te172     1.0  0.7347600000000001  0.26471  0.9475399999999999  1.0000
  Te  Te173     1.0  0.73529  0.26524  0.05246  1.0000
  Te  Te174     1.0  0.26524  0.26471  0.9475399999999999  1.0000
  Te  Te175     1.0  0.26471  0.7347600000000001  0.05246  1.0000
  Te  Te176     1.0  0.7347600000000001  0.73529  0.9475399999999999  1.0000
  Te  Te177     1.0  0.7647100000000001  0.76524  0.55246  1.0000
  Te  Te178     1.0  0.76524  0.23529000000000003  0.44753999999999994  1.0000
  Te  Te179     1.0  0.23529000000000003  0.23476000000000002  0.55246  1.0000
  Te  Te180     1.0  0.23476000000000002  0.7647100000000001  0.44753999999999994  1.0000
  Te  Te181     1.0  0.23529000000000003  0.76524  0.55246  1.0000
  Te  Te182     1.0  0.76524  0.7647100000000001  0.44753999999999994  1.0000
  Te  Te183     1.0  0.7647100000000001  0.23476000000000002  0.55246  1.0000
  Te  Te184     1.0  0.23476000000000002  0.23529000000000003  0.44753999999999994  1.0000
  In  In1       1.0  0.18831000000000006  0.18766  0.1378  1.0000
  In  In2       1.0  0.18766  0.8116900000000001  0.8622  1.0000
  In  In3       1.0  0.8116900000000001  0.8123400000000002  0.1378  1.0000
  In  In4       1.0  0.8123400000000002  0.18831000000000006  0.8622  1.0000
  In  In5       1.0  0.8116900000000001  0.18766  0.1378  1.0000
  In  In6       1.0  0.18766  0.18831000000000006  0.8622  1.0000
  In  In7       1.0  0.18831000000000006  0.8123400000000002  0.1378  1.0000
  In  In8       1.0  0.8123400000000002  0.8116900000000001  0.8622  1.0000
  In  In9       1.0  0.68831  0.6876599999999999  0.6378  1.0000
  In  In10      1.0  0.6876599999999999  0.31169  0.36219999999999997  1.0000
  In  In11      1.0  0.31169  0.31234000000000006  0.6378  1.0000
  In  In12      1.0  0.31234000000000006  0.68831  0.36219999999999997  1.0000
  In  In13      1.0  0.31169  0.6876599999999999  0.6378  1.0000
  In  In14      1.0  0.6876599999999999  0.68831  0.36219999999999997  1.0000
  In  In15      1.0  0.68831  0.31234000000000006  0.6378  1.0000
  In  In16      1.0  0.31234000000000006  0.31169  0.36219999999999997  1.0000
  In  In17      1.0  0.29297000000000006  0.07268000000000001  0.14399  1.0000
  In  In18      1.0  0.07268000000000001  0.70703  0.8560099999999999  1.0000
  In  In19      1.0  0.70703  0.9273200000000001  0.14399  1.0000
  In  In20      1.0  0.9273200000000001  0.29297000000000006  0.8560099999999999  1.0000
  In  In21      1.0  0.70703  0.07268000000000001  0.14399  1.0000
  In  In22      1.0  0.07268000000000001  0.29297000000000006  0.8560099999999999  1.0000
  In  In23      1.0  0.29297000000000006  0.9273200000000001  0.14399  1.0000
  In  In24      1.0  0.9273200000000001  0.70703  0.8560099999999999  1.0000
  In  In25      1.0  0.7929700000000001  0.57268  0.6439900000000001  1.0000
  In  In26      1.0  0.57268  0.20702999999999994  0.35601  1.0000
  In  In27      1.0  0.20702999999999994  0.42732  0.6439900000000001  1.0000
  In  In28      1.0  0.42732  0.7929700000000001  0.35601  1.0000
  In  In29      1.0  0.20702999999999994  0.57268  0.6439900000000001  1.0000
  In  In30      1.0  0.57268  0.7929700000000001  0.35601  1.0000
  In  In31      1.0  0.7929700000000001  0.42732  0.6439900000000001  1.0000
  In  In32      1.0  0.42732  0.20702999999999994  0.35601  1.0000
  In  In33      1.0  0.3046  0.17470000000000005  0.05865  1.0000
  In  In34      1.0  0.17470000000000005  0.6954000000000001  0.94135  1.0000
  In  In35      1.0  0.6954000000000001  0.8252999999999999  0.05865  1.0000
  In  In36      1.0  0.8252999999999999  0.3046  0.94135  1.0000
  In  In37      1.0  0.6954000000000001  0.17470000000000005  0.05865  1.0000
  In  In38      1.0  0.17470000000000005  0.3046  0.94135  1.0000
  In  In39      1.0  0.3046  0.8252999999999999  0.05865  1.0000
  In  In40      1.0  0.8252999999999999  0.6954000000000001  0.94135  1.0000
  In  In41      1.0  0.8046  0.6747000000000002  0.55865  1.0000
  In  In42      1.0  0.6747000000000002  0.19540000000000002  0.4413500000000001  1.0000
  In  In43      1.0  0.19540000000000002  0.3253  0.55865  1.0000
  In  In44      1.0  0.3253  0.8046  0.4413500000000001  1.0000
  In  In45      1.0  0.19540000000000002  0.6747000000000002  0.55865  1.0000
  In  In46      1.0  0.6747000000000002  0.8046  0.4413500000000001  1.0000
  In  In47      1.0  0.8046  0.3253  0.55865  1.0000
  In  In48      1.0  0.3253  0.19540000000000002  0.4413500000000001  1.0000
  In  In49      1.0  0.24348000000000006  0.16578  0.9604199999999999  1.0000
  In  In50      1.0  0.16578  0.7565200000000001  0.03958  1.0000
  In  In51      1.0  0.7565200000000001  0.83422  0.9604199999999999  1.0000
  In  In52      1.0  0.83422  0.24348000000000006  0.03958  1.0000
  In  In53      1.0  0.7565200000000001  0.16578  0.9604199999999999  1.0000
  In  In54      1.0  0.16578  0.24348000000000006  0.03958  1.0000
  In  In55      1.0  0.24348000000000006  0.83422  0.9604199999999999  1.0000
  In  In56      1.0  0.83422  0.7565200000000001  0.03958  1.0000
  In  In57      1.0  0.74348  0.6657800000000001  0.46042  1.0000
  In  In58      1.0  0.6657800000000001  0.25651999999999997  0.53958  1.0000
  In  In59      1.0  0.25651999999999997  0.33422  0.46042  1.0000
  In  In60      1.0  0.33422  0.74348  0.53958  1.0000
  In  In61      1.0  0.25651999999999997  0.6657800000000001  0.46042  1.0000
  In  In62      1.0  0.6657800000000001  0.74348  0.53958  1.0000
  In  In63      1.0  0.74348  0.33422  0.46042  1.0000
  In  In64      1.0  0.33422  0.25651999999999997  0.53958  1.0000
  In  In65      1.0  0.34234  0.21301  0.16058  1.0000
  In  In66      1.0  0.21301  0.6576600000000001  0.83942  1.0000
  In  In67      1.0  0.6576600000000001  0.7869900000000001  0.16058  1.0000
  In  In68      1.0  0.7869900000000001  0.34234  0.83942  1.0000
  In  In69      1.0  0.6576600000000001  0.21301  0.16058  1.0000
  In  In70      1.0  0.21301  0.34234  0.83942  1.0000
  In  In71      1.0  0.34234  0.7869900000000001  0.16058  1.0000
  In  In72      1.0  0.7869900000000001  0.6576600000000001  0.83942  1.0000
  In  In73      1.0  0.84234  0.71301  0.66058  1.0000
  In  In74      1.0  0.71301  0.15766000000000002  0.33942  1.0000
  In  In75      1.0  0.15766000000000002  0.28699  0.66058  1.0000
  In  In76      1.0  0.28699  0.84234  0.33942  1.0000
  In  In77      1.0  0.15766000000000002  0.71301  0.66058  1.0000
  In  In78      1.0  0.71301  0.84234  0.33942  1.0000
  In  In79      1.0  0.84234  0.28699  0.66058  1.0000
  In  In80      1.0  0.28699  0.15766000000000002  0.33942  1.0000
  In  In81      1.0  0.23836000000000004  0.15412  0.23763000000000004  1.0000
  In  In82      1.0  0.15412  0.7616400000000001  0.76237  1.0000
  In  In83      1.0  0.7616400000000001  0.84588  0.23763000000000004  1.0000
  In  In84      1.0  0.84588  0.23836000000000004  0.76237  1.0000
  In  In85      1.0  0.7616400000000001  0.15412  0.23763000000000004  1.0000
  In  In86      1.0  0.15412  0.23836000000000004  0.76237  1.0000
  In  In87      1.0  0.23836000000000004  0.84588  0.23763000000000004  1.0000
  In  In88      1.0  0.84588  0.7616400000000001  0.76237  1.0000
  In  In89      1.0  0.73836  0.65412  0.73763  1.0000
  In  In90      1.0  0.65412  0.26164  0.26237  1.0000
  In  In91      1.0  0.26164  0.34587999999999997  0.73763  1.0000
  In  In92      1.0  0.34587999999999997  0.73836  0.26237  1.0000
  In  In93      1.0  0.26164  0.65412  0.73763  1.0000
  In  In94      1.0  0.65412  0.73836  0.26237  1.0000
  In  In95      1.0  0.73836  0.34587999999999997  0.73763  1.0000
  In  In96      1.0  0.34587999999999997  0.26164  0.26237  1.0000
