data_image0
_chemical_formula_structural       Ga64Zn32Ga32S8Ga32S256
_chemical_formula_sum              "Ga128 Zn32 S264"
_cell_length_a       22.595
_cell_length_b       22.595
_cell_length_c       40.905
_cell_angle_alpha    90.0
_cell_angle_beta     90.0
_cell_angle_gamma    90.0

_space_group_name_H-M_alt    "P 1"
_space_group_IT_number       1

loop_
  _space_group_symop_operation_xyz
  'x, y, z'

loop_
  _atom_site_type_symbol
  _atom_site_label
  _atom_site_symmetry_multiplicity
  _atom_site_fract_x
  _atom_site_fract_y
  _atom_site_fract_z
  _atom_site_occupancy
  Ga  Ga1       1.0  0.68044  0.28759  0.09351  1.0000
  Ga  Ga2       1.0  0.81956  0.71241  0.59351  1.0000
  Ga  Ga3       1.0  0.96241  0.43043999999999993  0.34351  1.0000
  Ga  Ga4       1.0  0.53759  0.56956  0.8435099999999999  1.0000
  Ga  Ga5       1.0  0.81956  0.28759  0.90649  1.0000
  Ga  Ga6       1.0  0.68044  0.71241  0.40648999999999996  1.0000
  Ga  Ga7       1.0  0.53759  0.43043999999999993  0.65649  1.0000
  Ga  Ga8       1.0  0.96241  0.56956  0.15649000000000002  1.0000
  Ga  Ga9       1.0  0.18043999999999993  0.78759  0.59351  1.0000
  Ga  Ga10      1.0  0.31955999999999996  0.21241  0.09351  1.0000
  Ga  Ga11      1.0  0.46241000000000004  0.93044  0.8435099999999999  1.0000
  Ga  Ga12      1.0  0.03759000000000001  0.06955999999999996  0.34351  1.0000
  Ga  Ga13      1.0  0.31955999999999996  0.78759  0.40648999999999996  1.0000
  Ga  Ga14      1.0  0.18043999999999993  0.21241  0.90649  1.0000
  Ga  Ga15      1.0  0.03759000000000001  0.93044  0.15649000000000002  1.0000
  Ga  Ga16      1.0  0.46241000000000004  0.06955999999999996  0.65649  1.0000
  Ga  Ga17      1.0  0.31955999999999996  0.71241  0.90649  1.0000
  Ga  Ga18      1.0  0.18043999999999993  0.28759  0.40648999999999996  1.0000
  Ga  Ga19      1.0  0.03759000000000001  0.56956  0.65649  1.0000
  Ga  Ga20      1.0  0.46241000000000004  0.43043999999999993  0.15649000000000002  1.0000
  Ga  Ga21      1.0  0.18043999999999993  0.71241  0.09351  1.0000
  Ga  Ga22      1.0  0.31955999999999996  0.28759  0.59351  1.0000
  Ga  Ga23      1.0  0.46241000000000004  0.56956  0.34351  1.0000
  Ga  Ga24      1.0  0.03759000000000001  0.43043999999999993  0.8435099999999999  1.0000
  Ga  Ga25      1.0  0.81956  0.21241  0.40648999999999996  1.0000
  Ga  Ga26      1.0  0.68044  0.78759  0.90649  1.0000
  Ga  Ga27      1.0  0.53759  0.06955999999999996  0.15649000000000002  1.0000
  Ga  Ga28      1.0  0.96241  0.93044  0.65649  1.0000
  Ga  Ga29      1.0  0.68044  0.21241  0.59351  1.0000
  Ga  Ga30      1.0  0.81956  0.78759  0.09351  1.0000
  Ga  Ga31      1.0  0.96241  0.06955999999999996  0.8435099999999999  1.0000
  Ga  Ga32      1.0  0.53759  0.93044  0.34351  1.0000
  Ga  Ga33      1.0  0.57751  0.4176500000000001  0.09278  1.0000
  Ga  Ga34      1.0  0.92249  0.5823499999999999  0.59278  1.0000
  Ga  Ga35      1.0  0.8323499999999999  0.32750999999999997  0.34278  1.0000
  Ga  Ga36      1.0  0.6676500000000001  0.67249  0.84278  1.0000
  Ga  Ga37      1.0  0.92249  0.4176500000000001  0.9072199999999999  1.0000
  Ga  Ga38      1.0  0.57751  0.5823499999999999  0.40721999999999997  1.0000
  Ga  Ga39      1.0  0.6676500000000001  0.32750999999999997  0.65722  1.0000
  Ga  Ga40      1.0  0.8323499999999999  0.67249  0.15722  1.0000
  Ga  Ga41      1.0  0.07750999999999997  0.9176500000000001  0.59278  1.0000
  Ga  Ga42      1.0  0.42249000000000003  0.08234999999999992  0.09278  1.0000
  Ga  Ga43      1.0  0.3323499999999999  0.82751  0.84278  1.0000
  Ga  Ga44      1.0  0.16765000000000008  0.17249000000000003  0.34278  1.0000
  Ga  Ga45      1.0  0.42249000000000003  0.9176500000000001  0.40721999999999997  1.0000
  Ga  Ga46      1.0  0.07750999999999997  0.08234999999999992  0.9072199999999999  1.0000
  Ga  Ga47      1.0  0.16765000000000008  0.82751  0.15722  1.0000
  Ga  Ga48      1.0  0.3323499999999999  0.17249000000000003  0.65722  1.0000
  Ga  Ga49      1.0  0.42249000000000003  0.5823499999999999  0.9072199999999999  1.0000
  Ga  Ga50      1.0  0.07750999999999997  0.4176500000000001  0.40721999999999997  1.0000
  Ga  Ga51      1.0  0.16765000000000008  0.67249  0.65722  1.0000
  Ga  Ga52      1.0  0.3323499999999999  0.32750999999999997  0.15722  1.0000
  Ga  Ga53      1.0  0.07750999999999997  0.5823499999999999  0.09278  1.0000
  Ga  Ga54      1.0  0.42249000000000003  0.4176500000000001  0.59278  1.0000
  Ga  Ga55      1.0  0.3323499999999999  0.67249  0.34278  1.0000
  Ga  Ga56      1.0  0.16765000000000008  0.32750999999999997  0.84278  1.0000
  Ga  Ga57      1.0  0.92249  0.08234999999999992  0.40721999999999997  1.0000
  Ga  Ga58      1.0  0.57751  0.9176500000000001  0.9072199999999999  1.0000
  Ga  Ga59      1.0  0.6676500000000001  0.17249000000000003  0.15722  1.0000
  Ga  Ga60      1.0  0.8323499999999999  0.82751  0.65722  1.0000
  Ga  Ga61      1.0  0.57751  0.08234999999999992  0.59278  1.0000
  Ga  Ga62      1.0  0.92249  0.9176500000000001  0.09278  1.0000
  Ga  Ga63      1.0  0.8323499999999999  0.17249000000000003  0.84278  1.0000
  Ga  Ga64      1.0  0.6676500000000001  0.82751  0.34278  1.0000
  Zn  Zn1       1.0  0.56537  0.30215  0.15771  1.0000
  Zn  Zn2       1.0  0.9346299999999998  0.6978500000000001  0.65771  1.0000
  Zn  Zn3       1.0  0.9478500000000001  0.31537000000000015  0.4077100000000001  1.0000
  Zn  Zn4       1.0  0.5521499999999999  0.68463  0.90771  1.0000
  Zn  Zn5       1.0  0.9346299999999998  0.30215  0.84229  1.0000
  Zn  Zn6       1.0  0.56537  0.6978500000000001  0.34229  1.0000
  Zn  Zn7       1.0  0.5521499999999999  0.31537000000000015  0.59229  1.0000
  Zn  Zn8       1.0  0.9478500000000001  0.68463  0.09229000000000001  1.0000
  Zn  Zn9       1.0  0.06537000000000015  0.8021499999999999  0.65771  1.0000
  Zn  Zn10      1.0  0.43462999999999996  0.19785000000000003  0.15771  1.0000
  Zn  Zn11      1.0  0.44785  0.8153700000000002  0.90771  1.0000
  Zn  Zn12      1.0  0.05214999999999991  0.18462999999999996  0.4077100000000001  1.0000
  Zn  Zn13      1.0  0.43462999999999996  0.8021499999999999  0.34229  1.0000
  Zn  Zn14      1.0  0.06537000000000015  0.19785000000000003  0.84229  1.0000
  Zn  Zn15      1.0  0.05214999999999991  0.8153700000000002  0.09229000000000001  1.0000
  Zn  Zn16      1.0  0.44785  0.18462999999999996  0.59229  1.0000
  Zn  Zn17      1.0  0.43462999999999996  0.6978500000000001  0.84229  1.0000
  Zn  Zn18      1.0  0.06537000000000015  0.30215  0.34229  1.0000
  Zn  Zn19      1.0  0.05214999999999991  0.68463  0.59229  1.0000
  Zn  Zn20      1.0  0.44785  0.31537000000000015  0.09229000000000001  1.0000
  Zn  Zn21      1.0  0.06537000000000015  0.6978500000000001  0.15771  1.0000
  Zn  Zn22      1.0  0.43462999999999996  0.30215  0.65771  1.0000
  Zn  Zn23      1.0  0.44785  0.68463  0.4077100000000001  1.0000
  Zn  Zn24      1.0  0.05214999999999991  0.31537000000000015  0.90771  1.0000
  Zn  Zn25      1.0  0.9346299999999998  0.19785000000000003  0.34229  1.0000
  Zn  Zn26      1.0  0.56537  0.8021499999999999  0.84229  1.0000
  Zn  Zn27      1.0  0.5521499999999999  0.18462999999999996  0.09229000000000001  1.0000
  Zn  Zn28      1.0  0.9478500000000001  0.8153700000000002  0.59229  1.0000
  Zn  Zn29      1.0  0.56537  0.19785000000000003  0.65771  1.0000
  Zn  Zn30      1.0  0.9346299999999998  0.8021499999999999  0.15771  1.0000
  Zn  Zn31      1.0  0.9478500000000001  0.18462999999999996  0.90771  1.0000
  Zn  Zn32      1.0  0.5521499999999999  0.8153700000000002  0.4077100000000001  1.0000
  Ga  Ga65      1.0  0.56441  0.30055  0.02833  1.0000
  Ga  Ga66      1.0  0.93559  0.69945  0.52833  1.0000
  Ga  Ga67      1.0  0.94945  0.3144100000000001  0.27833  1.0000
  Ga  Ga68      1.0  0.55055  0.68559  0.77833  1.0000
  Ga  Ga69      1.0  0.93559  0.30055  0.97167  1.0000
  Ga  Ga70      1.0  0.56441  0.69945  0.47167  1.0000
  Ga  Ga71      1.0  0.55055  0.3144100000000001  0.72167  1.0000
  Ga  Ga72      1.0  0.94945  0.68559  0.22167  1.0000
  Ga  Ga73      1.0  0.06441000000000008  0.80055  0.52833  1.0000
  Ga  Ga74      1.0  0.43559000000000003  0.19945000000000002  0.02833  1.0000
  Ga  Ga75      1.0  0.44945  0.81441  0.77833  1.0000
  Ga  Ga76      1.0  0.05054999999999988  0.18559  0.27833  1.0000
  Ga  Ga77      1.0  0.43559000000000003  0.80055  0.47167  1.0000
  Ga  Ga78      1.0  0.06441000000000008  0.19945000000000002  0.97167  1.0000
  Ga  Ga79      1.0  0.05054999999999988  0.81441  0.22167  1.0000
  Ga  Ga80      1.0  0.44945  0.18559  0.72167  1.0000
  Ga  Ga81      1.0  0.43559000000000003  0.69945  0.97167  1.0000
  Ga  Ga82      1.0  0.06441000000000008  0.30055  0.47167  1.0000
  Ga  Ga83      1.0  0.05054999999999988  0.68559  0.72167  1.0000
  Ga  Ga84      1.0  0.44945  0.3144100000000001  0.22167  1.0000
  Ga  Ga85      1.0  0.06441000000000008  0.69945  0.02833  1.0000
  Ga  Ga86      1.0  0.43559000000000003  0.30055  0.52833  1.0000
  Ga  Ga87      1.0  0.44945  0.68559  0.27833  1.0000
  Ga  Ga88      1.0  0.05054999999999988  0.3144100000000001  0.77833  1.0000
  Ga  Ga89      1.0  0.93559  0.19945000000000002  0.47167  1.0000
  Ga  Ga90      1.0  0.56441  0.80055  0.97167  1.0000
  Ga  Ga91      1.0  0.55055  0.18559  0.22167  1.0000
  Ga  Ga92      1.0  0.94945  0.81441  0.72167  1.0000
  Ga  Ga93      1.0  0.56441  0.19945000000000002  0.52833  1.0000
  Ga  Ga94      1.0  0.93559  0.80055  0.02833  1.0000
  Ga  Ga95      1.0  0.94945  0.18559  0.77833  1.0000
  Ga  Ga96      1.0  0.55055  0.81441  0.27833  1.0000
  S   S1        1.0  0.5  0.25  0.125  1.0000
  S   S2        1.0  0.0  0.75  0.625  1.0000
  S   S3        1.0  0.0  0.25  0.375  1.0000
  S   S4        1.0  0.5  0.75  0.8750000000000001  1.0000
  S   S5        1.0  0.0  0.25  0.8750000000000001  1.0000
  S   S6        1.0  0.5  0.75  0.375  1.0000
  S   S7        1.0  0.5  0.25  0.625  1.0000
  S   S8        1.0  0.0  0.75  0.125  1.0000
  Ga  Ga97      1.0  0.68908  0.39876  0.03056  1.0000
  Ga  Ga98      1.0  0.81092  0.60124  0.53056  1.0000
  Ga  Ga99      1.0  0.85124  0.43908000000000014  0.28056  1.0000
  Ga  Ga100     1.0  0.64876  0.56092  0.78056  1.0000
  Ga  Ga101     1.0  0.81092  0.39876  0.9694399999999999  1.0000
  Ga  Ga102     1.0  0.68908  0.60124  0.46944  1.0000
  Ga  Ga103     1.0  0.64876  0.43908000000000014  0.71944  1.0000
  Ga  Ga104     1.0  0.85124  0.56092  0.21944000000000002  1.0000
  Ga  Ga105     1.0  0.18908000000000014  0.89876  0.53056  1.0000
  Ga  Ga106     1.0  0.31092  0.10124  0.03056  1.0000
  Ga  Ga107     1.0  0.35124  0.93908  0.78056  1.0000
  Ga  Ga108     1.0  0.14876  0.060919999999999974  0.28056  1.0000
  Ga  Ga109     1.0  0.31092  0.89876  0.46944  1.0000
  Ga  Ga110     1.0  0.18908000000000014  0.10124  0.9694399999999999  1.0000
  Ga  Ga111     1.0  0.14876  0.93908  0.21944000000000002  1.0000
  Ga  Ga112     1.0  0.35124  0.060919999999999974  0.71944  1.0000
  Ga  Ga113     1.0  0.31092  0.60124  0.9694399999999999  1.0000
  Ga  Ga114     1.0  0.18908000000000014  0.39876  0.46944  1.0000
  Ga  Ga115     1.0  0.14876  0.56092  0.71944  1.0000
  Ga  Ga116     1.0  0.35124  0.43908000000000014  0.21944000000000002  1.0000
  Ga  Ga117     1.0  0.18908000000000014  0.60124  0.03056  1.0000
  Ga  Ga118     1.0  0.31092  0.39876  0.53056  1.0000
  Ga  Ga119     1.0  0.35124  0.56092  0.28056  1.0000
  Ga  Ga120     1.0  0.14876  0.43908000000000014  0.78056  1.0000
  Ga  Ga121     1.0  0.81092  0.10124  0.46944  1.0000
  Ga  Ga122     1.0  0.68908  0.89876  0.9694399999999999  1.0000
  Ga  Ga123     1.0  0.64876  0.060919999999999974  0.21944000000000002  1.0000
  Ga  Ga124     1.0  0.85124  0.93908  0.71944  1.0000
  Ga  Ga125     1.0  0.68908  0.10124  0.53056  1.0000
  Ga  Ga126     1.0  0.81092  0.89876  0.03056  1.0000
  Ga  Ga127     1.0  0.85124  0.060919999999999974  0.78056  1.0000
  Ga  Ga128     1.0  0.64876  0.93908  0.28056  1.0000
  S   S9        1.0  0.6314  0.35450000000000004  0.12587  1.0000
  S   S10       1.0  0.8686  0.6455  0.62587  1.0000
  S   S11       1.0  0.8955  0.3814  0.37587000000000004  1.0000
  S   S12       1.0  0.6045  0.6186  0.87587  1.0000
  S   S13       1.0  0.8686  0.35450000000000004  0.8741299999999999  1.0000
  S   S14       1.0  0.6314  0.6455  0.37412999999999996  1.0000
  S   S15       1.0  0.6045  0.3814  0.62413  1.0000
  S   S16       1.0  0.8955  0.6186  0.12412999999999999  1.0000
  S   S17       1.0  0.13139999999999996  0.8545  0.62587  1.0000
  S   S18       1.0  0.3686  0.14549999999999996  0.12587  1.0000
  S   S19       1.0  0.39549999999999996  0.8814  0.87587  1.0000
  S   S20       1.0  0.10450000000000004  0.11860000000000005  0.37587000000000004  1.0000
  S   S21       1.0  0.3686  0.8545  0.37412999999999996  1.0000
  S   S22       1.0  0.13139999999999996  0.14549999999999996  0.8741299999999999  1.0000
  S   S23       1.0  0.10450000000000004  0.8814  0.12412999999999999  1.0000
  S   S24       1.0  0.39549999999999996  0.11860000000000005  0.62413  1.0000
  S   S25       1.0  0.3686  0.6455  0.8741299999999999  1.0000
  S   S26       1.0  0.13139999999999996  0.35450000000000004  0.37412999999999996  1.0000
  S   S27       1.0  0.10450000000000004  0.6186  0.62413  1.0000
  S   S28       1.0  0.39549999999999996  0.3814  0.12412999999999999  1.0000
  S   S29       1.0  0.13139999999999996  0.6455  0.12587  1.0000
  S   S30       1.0  0.3686  0.35450000000000004  0.62587  1.0000
  S   S31       1.0  0.39549999999999996  0.6186  0.37587000000000004  1.0000
  S   S32       1.0  0.10450000000000004  0.3814  0.87587  1.0000
  S   S33       1.0  0.8686  0.14549999999999996  0.37412999999999996  1.0000
  S   S34       1.0  0.6314  0.8545  0.8741299999999999  1.0000
  S   S35       1.0  0.6045  0.11860000000000005  0.12412999999999999  1.0000
  S   S36       1.0  0.8955  0.8814  0.62413  1.0000
  S   S37       1.0  0.6314  0.14549999999999996  0.62587  1.0000
  S   S38       1.0  0.8686  0.8545  0.12587  1.0000
  S   S39       1.0  0.8955  0.11860000000000005  0.87587  1.0000
  S   S40       1.0  0.6045  0.8814  0.37587000000000004  1.0000
  S   S41       1.0  0.6184  0.2345  0.05935000000000001  1.0000
  S   S42       1.0  0.8816  0.7655000000000001  0.55935  1.0000
  S   S43       1.0  0.015500000000000012  0.36839999999999984  0.30935  1.0000
  S   S44       1.0  0.48449999999999993  0.6316  0.80935  1.0000
  S   S45       1.0  0.8816  0.2345  0.94065  1.0000
  S   S46       1.0  0.6184  0.7655000000000001  0.44065  1.0000
  S   S47       1.0  0.48449999999999993  0.36839999999999984  0.69065  1.0000
  S   S48       1.0  0.015500000000000012  0.6316  0.19065  1.0000
  S   S49       1.0  0.11839999999999984  0.7344999999999999  0.55935  1.0000
  S   S50       1.0  0.3816000000000001  0.2655  0.05935000000000001  1.0000
  S   S51       1.0  0.5155000000000001  0.8684  0.80935  1.0000
  S   S52       1.0  0.9844999999999999  0.13160000000000005  0.30935  1.0000
  S   S53       1.0  0.3816000000000001  0.7344999999999999  0.44065  1.0000
  S   S54       1.0  0.11839999999999984  0.2655  0.94065  1.0000
  S   S55       1.0  0.9844999999999999  0.8684  0.19065  1.0000
  S   S56       1.0  0.5155000000000001  0.13160000000000005  0.69065  1.0000
  S   S57       1.0  0.3816000000000001  0.7655000000000001  0.94065  1.0000
  S   S58       1.0  0.11839999999999984  0.2345  0.44065  1.0000
  S   S59       1.0  0.9844999999999999  0.6316  0.69065  1.0000
  S   S60       1.0  0.5155000000000001  0.36839999999999984  0.19065  1.0000
  S   S61       1.0  0.11839999999999984  0.7655000000000001  0.05935000000000001  1.0000
  S   S62       1.0  0.3816000000000001  0.2345  0.55935  1.0000
  S   S63       1.0  0.5155000000000001  0.6316  0.30935  1.0000
  S   S64       1.0  0.9844999999999999  0.36839999999999984  0.80935  1.0000
  S   S65       1.0  0.8816  0.2655  0.44065  1.0000
  S   S66       1.0  0.6184  0.7344999999999999  0.94065  1.0000
  S   S67       1.0  0.48449999999999993  0.13160000000000005  0.19065  1.0000
  S   S68       1.0  0.015500000000000012  0.8684  0.69065  1.0000
  S   S69       1.0  0.6184  0.2655  0.55935  1.0000
  S   S70       1.0  0.8816  0.7344999999999999  0.05935000000000001  1.0000
  S   S71       1.0  0.015500000000000012  0.13160000000000005  0.80935  1.0000
  S   S72       1.0  0.48449999999999993  0.8684  0.30935  1.0000
  S   S73       1.0  0.5117  0.3673  0.05911  1.0000
  S   S74       1.0  0.9883000000000001  0.6327  0.55911  1.0000
  S   S75       1.0  0.8827  0.26170000000000004  0.30911  1.0000
  S   S76       1.0  0.6173  0.7383000000000001  0.80911  1.0000
  S   S77       1.0  0.9883000000000001  0.3673  0.94089  1.0000
  S   S78       1.0  0.5117  0.6327  0.44089  1.0000
  S   S79       1.0  0.6173  0.26170000000000004  0.69089  1.0000
  S   S80       1.0  0.8827  0.7383000000000001  0.19089  1.0000
  S   S81       1.0  0.011700000000000044  0.8673  0.55911  1.0000
  S   S82       1.0  0.48829999999999996  0.13269999999999998  0.05911  1.0000
  S   S83       1.0  0.3827  0.7617  0.80911  1.0000
  S   S84       1.0  0.11729999999999996  0.23829999999999998  0.30911  1.0000
  S   S85       1.0  0.48829999999999996  0.8673  0.44089  1.0000
  S   S86       1.0  0.011700000000000044  0.13269999999999998  0.94089  1.0000
  S   S87       1.0  0.11729999999999996  0.7617  0.19089  1.0000
  S   S88       1.0  0.3827  0.23829999999999998  0.69089  1.0000
  S   S89       1.0  0.48829999999999996  0.6327  0.94089  1.0000
  S   S90       1.0  0.011700000000000044  0.3673  0.44089  1.0000
  S   S91       1.0  0.11729999999999996  0.7383000000000001  0.69089  1.0000
  S   S92       1.0  0.3827  0.26170000000000004  0.19089  1.0000
  S   S93       1.0  0.011700000000000044  0.6327  0.05911  1.0000
  S   S94       1.0  0.48829999999999996  0.3673  0.55911  1.0000
  S   S95       1.0  0.3827  0.7383000000000001  0.30911  1.0000
  S   S96       1.0  0.11729999999999996  0.26170000000000004  0.80911  1.0000
  S   S97       1.0  0.9883000000000001  0.13269999999999998  0.44089  1.0000
  S   S98       1.0  0.5117  0.8673  0.94089  1.0000
  S   S99       1.0  0.6173  0.23829999999999998  0.19089  1.0000
  S   S100      1.0  0.8827  0.7617  0.69089  1.0000
  S   S101      1.0  0.5117  0.13269999999999998  0.55911  1.0000
  S   S102      1.0  0.9883000000000001  0.8673  0.05911  1.0000
  S   S103      1.0  0.8827  0.23829999999999998  0.80911  1.0000
  S   S104      1.0  0.6173  0.7617  0.30911  1.0000
  S   S105      1.0  0.7452  0.3367  0.06240999999999999  1.0000
  S   S106      1.0  0.7548  0.6633  0.56241  1.0000
  S   S107      1.0  0.9133000000000001  0.4952000000000001  0.31240999999999997  1.0000
  S   S108      1.0  0.5867  0.5048  0.8124099999999999  1.0000
  S   S109      1.0  0.7548  0.3367  0.93759  1.0000
  S   S110      1.0  0.7452  0.6633  0.43759  1.0000
  S   S111      1.0  0.5867  0.4952000000000001  0.68759  1.0000
  S   S112      1.0  0.9133000000000001  0.5048  0.18759  1.0000
  S   S113      1.0  0.2452000000000001  0.8366999999999999  0.56241  1.0000
  S   S114      1.0  0.2548  0.1633  0.06240999999999999  1.0000
  S   S115      1.0  0.4133  0.9952  0.8124099999999999  1.0000
  S   S116      1.0  0.0867  0.0048000000000000265  0.31240999999999997  1.0000
  S   S117      1.0  0.2548  0.8366999999999999  0.43759  1.0000
  S   S118      1.0  0.2452000000000001  0.1633  0.93759  1.0000
  S   S119      1.0  0.0867  0.9952  0.18759  1.0000
  S   S120      1.0  0.4133  0.0048000000000000265  0.68759  1.0000
  S   S121      1.0  0.2548  0.6633  0.93759  1.0000
  S   S122      1.0  0.2452000000000001  0.3367  0.43759  1.0000
  S   S123      1.0  0.0867  0.5048  0.68759  1.0000
  S   S124      1.0  0.4133  0.4952000000000001  0.18759  1.0000
  S   S125      1.0  0.2452000000000001  0.6633  0.06240999999999999  1.0000
  S   S126      1.0  0.2548  0.3367  0.56241  1.0000
  S   S127      1.0  0.4133  0.5048  0.31240999999999997  1.0000
  S   S128      1.0  0.0867  0.4952000000000001  0.8124099999999999  1.0000
  S   S129      1.0  0.7548  0.1633  0.43759  1.0000
  S   S130      1.0  0.7452  0.8366999999999999  0.93759  1.0000
  S   S131      1.0  0.5867  0.0048000000000000265  0.18759  1.0000
  S   S132      1.0  0.9133000000000001  0.9952  0.68759  1.0000
  S   S133      1.0  0.7452  0.1633  0.56241  1.0000
  S   S134      1.0  0.7548  0.8366999999999999  0.06240999999999999  1.0000
  S   S135      1.0  0.9133000000000001  0.0048000000000000265  0.8124099999999999  1.0000
  S   S136      1.0  0.5867  0.9952  0.31240999999999997  1.0000
  S   S137      1.0  0.731  0.2242  0.12555  1.0000
  S   S138      1.0  0.769  0.7758  0.62555  1.0000
  S   S139      1.0  0.025799999999999993  0.48099999999999987  0.37555  1.0000
  S   S140      1.0  0.4742  0.519  0.87555  1.0000
  S   S141      1.0  0.769  0.2242  0.87445  1.0000
  S   S142      1.0  0.731  0.7758  0.37445  1.0000
  S   S143      1.0  0.4742  0.48099999999999987  0.62445  1.0000
  S   S144      1.0  0.025799999999999993  0.519  0.12445  1.0000
  S   S145      1.0  0.23099999999999987  0.7242  0.62555  1.0000
  S   S146      1.0  0.269  0.2758  0.12555  1.0000
  S   S147      1.0  0.5258  0.981  0.87555  1.0000
  S   S148      1.0  0.9742  0.019000000000000017  0.37555  1.0000
  S   S149      1.0  0.269  0.7242  0.37445  1.0000
  S   S150      1.0  0.23099999999999987  0.2758  0.87445  1.0000
  S   S151      1.0  0.9742  0.981  0.12445  1.0000
  S   S152      1.0  0.5258  0.019000000000000017  0.62445  1.0000
  S   S153      1.0  0.269  0.7758  0.87445  1.0000
  S   S154      1.0  0.23099999999999987  0.2242  0.37445  1.0000
  S   S155      1.0  0.9742  0.519  0.62445  1.0000
  S   S156      1.0  0.5258  0.48099999999999987  0.12445  1.0000
  S   S157      1.0  0.23099999999999987  0.7758  0.12555  1.0000
  S   S158      1.0  0.269  0.2242  0.62555  1.0000
  S   S159      1.0  0.5258  0.519  0.37555  1.0000
  S   S160      1.0  0.9742  0.48099999999999987  0.87555  1.0000
  S   S161      1.0  0.769  0.2758  0.37445  1.0000
  S   S162      1.0  0.731  0.7242  0.87445  1.0000
  S   S163      1.0  0.4742  0.019000000000000017  0.12445  1.0000
  S   S164      1.0  0.025799999999999993  0.981  0.62445  1.0000
  S   S165      1.0  0.731  0.2758  0.62555  1.0000
  S   S166      1.0  0.769  0.7242  0.12555  1.0000
  S   S167      1.0  0.025799999999999993  0.019000000000000017  0.87555  1.0000
  S   S168      1.0  0.4742  0.981  0.37555  1.0000
  S   S169      1.0  0.6403  0.4685  0.06138999999999999  1.0000
  S   S170      1.0  0.8597  0.5315  0.56139  1.0000
  S   S171      1.0  0.7815  0.39029999999999987  0.31139  1.0000
  S   S172      1.0  0.7185  0.6097  0.81139  1.0000
  S   S173      1.0  0.8597  0.4685  0.93861  1.0000
  S   S174      1.0  0.6403  0.5315  0.43860999999999994  1.0000
  S   S175      1.0  0.7185  0.39029999999999987  0.68861  1.0000
  S   S176      1.0  0.7815  0.6097  0.18861  1.0000
  S   S177      1.0  0.14029999999999987  0.9685  0.56139  1.0000
  S   S178      1.0  0.3597  0.03149999999999997  0.06138999999999999  1.0000
  S   S179      1.0  0.2815  0.8903  0.81139  1.0000
  S   S180      1.0  0.21850000000000014  0.10970000000000002  0.31139  1.0000
  S   S181      1.0  0.3597  0.9685  0.43860999999999994  1.0000
  S   S182      1.0  0.14029999999999987  0.03149999999999997  0.93861  1.0000
  S   S183      1.0  0.21850000000000014  0.8903  0.18861  1.0000
  S   S184      1.0  0.2815  0.10970000000000002  0.68861  1.0000
  S   S185      1.0  0.3597  0.5315  0.93861  1.0000
  S   S186      1.0  0.14029999999999987  0.4685  0.43860999999999994  1.0000
  S   S187      1.0  0.21850000000000014  0.6097  0.68861  1.0000
  S   S188      1.0  0.2815  0.39029999999999987  0.18861  1.0000
  S   S189      1.0  0.14029999999999987  0.5315  0.06138999999999999  1.0000
  S   S190      1.0  0.3597  0.4685  0.56139  1.0000
  S   S191      1.0  0.2815  0.6097  0.31139  1.0000
  S   S192      1.0  0.21850000000000014  0.39029999999999987  0.81139  1.0000
  S   S193      1.0  0.8597  0.03149999999999997  0.43860999999999994  1.0000
  S   S194      1.0  0.6403  0.9685  0.93861  1.0000
  S   S195      1.0  0.7185  0.10970000000000002  0.18861  1.0000
  S   S196      1.0  0.7815  0.8903  0.68861  1.0000
  S   S197      1.0  0.6403  0.03149999999999997  0.56139  1.0000
  S   S198      1.0  0.8597  0.9685  0.06138999999999999  1.0000
  S   S199      1.0  0.7815  0.10970000000000002  0.81139  1.0000
  S   S200      1.0  0.7185  0.8903  0.31139  1.0000
  S   S201      1.0  0.5  0.25  0.9968  1.0000
  S   S202      1.0  0.0  0.75  0.4968  1.0000
  S   S203      1.0  0.0  0.25  0.2468  1.0000
  S   S204      1.0  0.5  0.75  0.7468  1.0000
  S   S205      1.0  0.0  0.25  0.0032  1.0000
  S   S206      1.0  0.5  0.75  0.5032  1.0000
  S   S207      1.0  0.5  0.25  0.7532  1.0000
  S   S208      1.0  0.0  0.75  0.2532  1.0000
  S   S209      1.0  0.5  0.75  0.0032  1.0000
  S   S210      1.0  0.0  0.25  0.5032  1.0000
  S   S211      1.0  0.0  0.75  0.7532  1.0000
  S   S212      1.0  0.5  0.25  0.2532  1.0000
  S   S213      1.0  0.0  0.75  0.9968  1.0000
  S   S214      1.0  0.5  0.25  0.4968  1.0000
  S   S215      1.0  0.5  0.75  0.2468  1.0000
  S   S216      1.0  0.0  0.25  0.7468  1.0000
  S   S217      1.0  0.75  0.456  0.0  1.0000
  S   S218      1.0  0.75  0.544  0.5  1.0000
  S   S219      1.0  0.794  0.5  0.25  1.0000
  S   S220      1.0  0.706  0.5  0.75  1.0000
  S   S221      1.0  0.25  0.956  0.5  1.0000
  S   S222      1.0  0.25  0.043999999999999984  0.0  1.0000
  S   S223      1.0  0.294  0.0  0.75  1.0000
  S   S224      1.0  0.20599999999999996  0.0  0.25  1.0000
  S   S225      1.0  0.25  0.544  0.0  1.0000
  S   S226      1.0  0.25  0.456  0.5  1.0000
  S   S227      1.0  0.20599999999999996  0.5  0.75  1.0000
  S   S228      1.0  0.294  0.5  0.25  1.0000
  S   S229      1.0  0.75  0.043999999999999984  0.5  1.0000
  S   S230      1.0  0.75  0.956  0.0  1.0000
  S   S231      1.0  0.706  0.0  0.25  1.0000
  S   S232      1.0  0.794  0.0  0.75  1.0000
  S   S233      1.0  0.6272  0.3486  0.99588  1.0000
  S   S234      1.0  0.8728  0.6514  0.49587999999999993  1.0000
  S   S235      1.0  0.9014  0.3772  0.24588  1.0000
  S   S236      1.0  0.5986  0.6228  0.74588  1.0000
  S   S237      1.0  0.8728  0.3486  0.00412  1.0000
  S   S238      1.0  0.6272  0.6514  0.50412  1.0000
  S   S239      1.0  0.5986  0.3772  0.75412  1.0000
  S   S240      1.0  0.9014  0.6228  0.25412  1.0000
  S   S241      1.0  0.12719999999999998  0.8486  0.49587999999999993  1.0000
  S   S242      1.0  0.3728  0.15139999999999998  0.99588  1.0000
  S   S243      1.0  0.4014  0.8772  0.74588  1.0000
  S   S244      1.0  0.09860000000000002  0.12280000000000002  0.24588  1.0000
  S   S245      1.0  0.3728  0.8486  0.50412  1.0000
  S   S246      1.0  0.12719999999999998  0.15139999999999998  0.00412  1.0000
  S   S247      1.0  0.09860000000000002  0.8772  0.25412  1.0000
  S   S248      1.0  0.4014  0.12280000000000002  0.75412  1.0000
  S   S249      1.0  0.3728  0.6514  0.00412  1.0000
  S   S250      1.0  0.12719999999999998  0.3486  0.50412  1.0000
  S   S251      1.0  0.09860000000000002  0.6228  0.75412  1.0000
  S   S252      1.0  0.4014  0.3772  0.25412  1.0000
  S   S253      1.0  0.12719999999999998  0.6514  0.99588  1.0000
  S   S254      1.0  0.3728  0.3486  0.49587999999999993  1.0000
  S   S255      1.0  0.4014  0.6228  0.24588  1.0000
  S   S256      1.0  0.09860000000000002  0.3772  0.74588  1.0000
  S   S257      1.0  0.8728  0.15139999999999998  0.50412  1.0000
  S   S258      1.0  0.6272  0.8486  0.00412  1.0000
  S   S259      1.0  0.5986  0.12280000000000002  0.25412  1.0000
  S   S260      1.0  0.9014  0.8772  0.75412  1.0000
  S   S261      1.0  0.6272  0.15139999999999998  0.49587999999999993  1.0000
  S   S262      1.0  0.8728  0.8486  0.99588  1.0000
  S   S263      1.0  0.9014  0.12280000000000002  0.74588  1.0000
  S   S264      1.0  0.5986  0.8772  0.24588  1.0000
