data_image0
_chemical_formula_structural       Ag2In2P4S12
_chemical_formula_sum              "Ag2 In2 P4 S12"
_cell_length_a       6.182
_cell_length_b       6.1819999999999995
_cell_length_c       12.957
_cell_angle_alpha    90.0
_cell_angle_beta     90.0
_cell_angle_gamma    119.99999999999999

_space_group_name_H-M_alt    "P 1"
_space_group_IT_number       1

loop_
  _space_group_symop_operation_xyz
  'x, y, z'

loop_
  _atom_site_type_symbol
  _atom_site_label
  _atom_site_symmetry_multiplicity
  _atom_site_fract_x
  _atom_site_fract_y
  _atom_site_fract_z
  _atom_site_occupancy
  Ag  Ag1       1.0  0.6666999999999998  0.3333  0.25  1.0000
  Ag  Ag2       1.0  0.33329999999999993  0.6666999999999998  0.75  1.0000
  In  In1       1.0  0.0  0.0  0.25  1.0000
  In  In2       1.0  0.0  0.0  0.75  1.0000
  P   P1        1.0  0.33329999999999993  0.6667  0.1641  1.0000
  P   P2        1.0  0.6666999999999998  0.33329999999999993  0.6641  1.0000
  P   P3        1.0  0.6667000000000001  0.33330000000000004  0.8359000000000001  1.0000
  P   P4        1.0  0.33330000000000004  0.6667000000000001  0.3359  1.0000
  S   S1        1.0  0.3145  0.3428  0.11973000000000003  1.0000
  S   S2        1.0  0.6572  0.9717  0.11973000000000003  1.0000
  S   S3        1.0  0.028299999999999978  0.6855  0.11973000000000003  1.0000
  S   S4        1.0  0.34279999999999994  0.3145  0.61973  1.0000
  S   S5        1.0  0.6854999999999999  0.028299999999999995  0.61973  1.0000
  S   S6        1.0  0.9717  0.6572  0.61973  1.0000
  S   S7        1.0  0.6854999999999999  0.6572  0.8802700000000001  1.0000
  S   S8        1.0  0.34279999999999994  0.028299999999999995  0.8802700000000001  1.0000
  S   S9        1.0  0.9717  0.3145  0.8802700000000001  1.0000
  S   S10       1.0  0.6572  0.6855  0.38027000000000005  1.0000
  S   S11       1.0  0.3145  0.9717  0.38027000000000005  1.0000
  S   S12       1.0  0.028299999999999995  0.3428  0.38027000000000005  1.0000
