data_image0
_chemical_formula_structural       Cu2Cl4O4
_chemical_formula_sum              "Cu2 Cl4 O4"
_cell_length_a       7.4
_cell_length_b       8.06
_cell_length_c       3.74
_cell_angle_alpha    90.0
_cell_angle_beta     90.0
_cell_angle_gamma    90.0

_space_group_name_H-M_alt    "P 1"
_space_group_IT_number       1

loop_
  _space_group_symop_operation_xyz
  'x, y, z'

loop_
  _atom_site_type_symbol
  _atom_site_label
  _atom_site_symmetry_multiplicity
  _atom_site_fract_x
  _atom_site_fract_y
  _atom_site_fract_z
  _atom_site_occupancy
  Cu  Cu1       1.0  0.0  0.0  0.0  1.0000
  Cu  Cu2       1.0  0.49999999999999994  0.5  0.0  1.0000
  Cl  Cl1       1.0  0.23899999999999993  0.0  0.3779999999999999  1.0000
  Cl  Cl2       1.0  0.7609999999999999  0.0  0.6220000000000001  1.0000
  Cl  Cl3       1.0  0.261  0.5  0.3779999999999999  1.0000
  Cl  Cl4       1.0  0.739  0.5  0.6220000000000001  1.0000
  O   O1        1.0  0.0  0.25  0.0  1.0000
  O   O2        1.0  0.49999999999999994  0.25  0.0  1.0000
  O   O3        1.0  0.0  0.7499999999999999  0.0  1.0000
  O   O4        1.0  0.49999999999999994  0.7499999999999999  0.0  1.0000
