data_image0
_chemical_formula_structural       Ce32O32Se32Fe16
_chemical_formula_sum              "Ce32 O32 Se32 Fe16"
_cell_length_a       22.74948
_cell_length_b       5.69246
_cell_length_c       17.63155
_cell_angle_alpha    90.0
_cell_angle_beta     90.0
_cell_angle_gamma    90.0

_space_group_name_H-M_alt    "P 1"
_space_group_IT_number       1

loop_
  _space_group_symop_operation_xyz
  'x, y, z'

loop_
  _atom_site_type_symbol
  _atom_site_label
  _atom_site_symmetry_multiplicity
  _atom_site_fract_x
  _atom_site_fract_y
  _atom_site_fract_z
  _atom_site_occupancy
  Ce  Ce1       1.0  0.24999999999999994  0.75  0.183  1.0000
  Ce  Ce2       1.0  0.7499999999999999  0.75  0.683  1.0000
  Ce  Ce3       1.0  0.7499999999999999  0.75  0.183  1.0000
  Ce  Ce4       1.0  0.7499999999999999  0.25  0.317  1.0000
  Ce  Ce5       1.0  0.24999999999999994  0.25  0.817  1.0000
  Ce  Ce6       1.0  0.24999999999999994  0.75  0.683  1.0000
  Ce  Ce7       1.0  0.7499999999999999  0.25  0.817  1.0000
  Ce  Ce8       1.0  0.24999999999999994  0.25  0.317  1.0000
  Ce  Ce9       1.0  0.0  0.2325  0.8204  1.0000
  Ce  Ce10      1.0  0.0  0.26749999999999996  0.3204  1.0000
  Ce  Ce11      1.0  0.0  0.7325000000000002  0.6796  1.0000
  Ce  Ce12      1.0  0.0  0.7675  0.17959999999999998  1.0000
  Ce  Ce13      1.0  0.49999999999999994  0.2325  0.3204  1.0000
  Ce  Ce14      1.0  0.49999999999999994  0.26749999999999996  0.8204  1.0000
  Ce  Ce15      1.0  0.49999999999999994  0.7325000000000002  0.17959999999999998  1.0000
  Ce  Ce16      1.0  0.49999999999999994  0.7675  0.6796  1.0000
  Ce  Ce17      1.0  0.6252  0.7337999999999999  0.3192  1.0000
  Ce  Ce18      1.0  0.3748  0.7662000000000001  0.8191999999999999  1.0000
  Ce  Ce19      1.0  0.3748  0.7337999999999999  0.3192  1.0000
  Ce  Ce20      1.0  0.3748  0.23380000000000004  0.18080000000000002  1.0000
  Ce  Ce21      1.0  0.6252  0.2662000000000001  0.6808000000000001  1.0000
  Ce  Ce22      1.0  0.6252  0.7662000000000001  0.8191999999999999  1.0000
  Ce  Ce23      1.0  0.3748  0.2662000000000001  0.6808000000000001  1.0000
  Ce  Ce24      1.0  0.6252  0.23380000000000004  0.18080000000000002  1.0000
  Ce  Ce25      1.0  0.12519999999999998  0.7337999999999999  0.8191999999999999  1.0000
  Ce  Ce26      1.0  0.8747999999999999  0.7662000000000001  0.3192  1.0000
  Ce  Ce27      1.0  0.8747999999999999  0.7337999999999999  0.8191999999999999  1.0000
  Ce  Ce28      1.0  0.8747999999999999  0.23380000000000004  0.6808000000000001  1.0000
  Ce  Ce29      1.0  0.12519999999999998  0.2662000000000001  0.18080000000000002  1.0000
  Ce  Ce30      1.0  0.12519999999999998  0.7662000000000001  0.3192  1.0000
  Ce  Ce31      1.0  0.8747999999999999  0.2662000000000001  0.18080000000000002  1.0000
  Ce  Ce32      1.0  0.12519999999999998  0.23380000000000004  0.6808000000000001  1.0000
  O   O1        1.0  0.6880999999999999  0.4921  0.24712999999999996  1.0000
  O   O2        1.0  0.3119  0.007900000000000018  0.74713  1.0000
  O   O3        1.0  0.3119  0.4921  0.24712999999999996  1.0000
  O   O4        1.0  0.3119  0.9921000000000001  0.25287000000000004  1.0000
  O   O5        1.0  0.6880999999999999  0.5079  0.75287  1.0000
  O   O6        1.0  0.6880999999999999  0.007900000000000018  0.74713  1.0000
  O   O7        1.0  0.3119  0.5079  0.75287  1.0000
  O   O8        1.0  0.6880999999999999  0.9921000000000001  0.25287000000000004  1.0000
  O   O9        1.0  0.18809999999999993  0.4921  0.74713  1.0000
  O   O10       1.0  0.8119  0.007900000000000018  0.24712999999999996  1.0000
  O   O11       1.0  0.8119  0.4921  0.74713  1.0000
  O   O12       1.0  0.8119  0.9921000000000001  0.75287  1.0000
  O   O13       1.0  0.18809999999999993  0.5079  0.25287000000000004  1.0000
  O   O14       1.0  0.18809999999999993  0.007900000000000018  0.24712999999999996  1.0000
  O   O15       1.0  0.8119  0.5079  0.25287000000000004  1.0000
  O   O16       1.0  0.18809999999999993  0.9921000000000001  0.75287  1.0000
  O   O17       1.0  0.4371999999999999  0.4798  0.2493  1.0000
  O   O18       1.0  0.5628  0.020199999999999996  0.7493  1.0000
  O   O19       1.0  0.5628  0.4798  0.2493  1.0000
  O   O20       1.0  0.5628  0.9798000000000001  0.25070000000000003  1.0000
  O   O21       1.0  0.4371999999999999  0.5202  0.7507  1.0000
  O   O22       1.0  0.4371999999999999  0.020199999999999996  0.7493  1.0000
  O   O23       1.0  0.5628  0.5202  0.7507  1.0000
  O   O24       1.0  0.4371999999999999  0.9798000000000001  0.25070000000000003  1.0000
  O   O25       1.0  0.9371999999999999  0.4798  0.7493  1.0000
  O   O26       1.0  0.06280000000000008  0.020199999999999996  0.2493  1.0000
  O   O27       1.0  0.06280000000000008  0.4798  0.7493  1.0000
  O   O28       1.0  0.06280000000000008  0.9798000000000001  0.7507  1.0000
  O   O29       1.0  0.9371999999999999  0.5202  0.25070000000000003  1.0000
  O   O30       1.0  0.9371999999999999  0.020199999999999996  0.2493  1.0000
  O   O31       1.0  0.06280000000000008  0.5202  0.25070000000000003  1.0000
  O   O32       1.0  0.9371999999999999  0.9798000000000001  0.7507  1.0000
  Se  Se1       1.0  0.24999999999999994  0.75  0.4211  1.0000
  Se  Se2       1.0  0.7499999999999999  0.75  0.9211  1.0000
  Se  Se3       1.0  0.7499999999999999  0.75  0.4211  1.0000
  Se  Se4       1.0  0.7499999999999999  0.25  0.07890000000000003  1.0000
  Se  Se5       1.0  0.24999999999999994  0.25  0.5789  1.0000
  Se  Se6       1.0  0.24999999999999994  0.75  0.9211  1.0000
  Se  Se7       1.0  0.7499999999999999  0.25  0.5789  1.0000
  Se  Se8       1.0  0.24999999999999994  0.25  0.07890000000000003  1.0000
  Se  Se9       1.0  0.0  0.2248  0.5847  1.0000
  Se  Se10      1.0  0.0  0.2752  0.0847  1.0000
  Se  Se11      1.0  0.0  0.7248  0.9153000000000001  1.0000
  Se  Se12      1.0  0.0  0.7752  0.4153  1.0000
  Se  Se13      1.0  0.49999999999999994  0.2248  0.0847  1.0000
  Se  Se14      1.0  0.49999999999999994  0.2752  0.5847  1.0000
  Se  Se15      1.0  0.49999999999999994  0.7248  0.4153  1.0000
  Se  Se16      1.0  0.49999999999999994  0.7752  0.9153000000000001  1.0000
  Se  Se17      1.0  0.6256  0.7429  0.08634  1.0000
  Se  Se18      1.0  0.3743999999999999  0.7571  0.58634  1.0000
  Se  Se19      1.0  0.3743999999999999  0.7429  0.08634  1.0000
  Se  Se20      1.0  0.3743999999999999  0.24290000000000014  0.41366  1.0000
  Se  Se21      1.0  0.6256  0.2571  0.9136599999999999  1.0000
  Se  Se22      1.0  0.6256  0.7571  0.58634  1.0000
  Se  Se23      1.0  0.3743999999999999  0.2571  0.9136599999999999  1.0000
  Se  Se24      1.0  0.6256  0.24290000000000014  0.41366  1.0000
  Se  Se25      1.0  0.1255999999999999  0.7429  0.58634  1.0000
  Se  Se26      1.0  0.8743999999999998  0.7571  0.08634  1.0000
  Se  Se27      1.0  0.8743999999999998  0.7429  0.58634  1.0000
  Se  Se28      1.0  0.8743999999999998  0.24290000000000014  0.9136599999999999  1.0000
  Se  Se29      1.0  0.1255999999999999  0.2571  0.41366  1.0000
  Se  Se30      1.0  0.1255999999999999  0.7571  0.08634  1.0000
  Se  Se31      1.0  0.8743999999999998  0.2571  0.41366  1.0000
  Se  Se32      1.0  0.1255999999999999  0.24290000000000014  0.9136599999999999  1.0000
  Fe  Fe1       1.0  0.56611  0.0  0.0  0.7500
  Fe  Fe2       1.0  0.43388999999999994  0.5  0.5  0.7500
  Fe  Fe3       1.0  0.43388999999999994  0.0  0.0  0.7500
  Fe  Fe4       1.0  0.56611  0.5  0.5  0.7500
  Fe  Fe5       1.0  0.0661100000000001  0.0  0.5  0.7500
  Fe  Fe6       1.0  0.9338899999999999  0.5  0.0  0.7500
  Fe  Fe7       1.0  0.9338899999999999  0.0  0.5  0.7500
  Fe  Fe8       1.0  0.0661100000000001  0.5  0.0  0.7500
  Fe  Fe9       1.0  0.812  0.0  0.0  0.7500
  Fe  Fe10      1.0  0.18799999999999992  0.5  0.5  0.7500
  Fe  Fe11      1.0  0.18799999999999992  0.0  0.0  0.7500
  Fe  Fe12      1.0  0.812  0.5  0.5  0.7500
  Fe  Fe13      1.0  0.31200000000000006  0.0  0.5  0.7500
  Fe  Fe14      1.0  0.688  0.5  0.0  0.7500
  Fe  Fe15      1.0  0.688  0.0  0.5  0.7500
  Fe  Fe16      1.0  0.31200000000000006  0.5  0.0  0.7500
  Zn  Zn1       1.0  0.56611  0.0  0.0  0.2500
  Zn  Zn2       1.0  0.43388999999999994  0.5  0.5  0.2500
  Zn  Zn3       1.0  0.43388999999999994  0.0  0.0  0.2500
  Zn  Zn4       1.0  0.56611  0.5  0.5  0.2500
  Zn  Zn5       1.0  0.0661100000000001  0.0  0.5  0.2500
  Zn  Zn6       1.0  0.9338899999999999  0.5  0.0  0.2500
  Zn  Zn7       1.0  0.9338899999999999  0.0  0.5  0.2500
  Zn  Zn8       1.0  0.0661100000000001  0.5  0.0  0.2500
  Zn  Zn9       1.0  0.812  0.0  0.0  0.2500
  Zn  Zn10      1.0  0.18799999999999992  0.5  0.5  0.2500
  Zn  Zn11      1.0  0.18799999999999992  0.0  0.0  0.2500
  Zn  Zn12      1.0  0.812  0.5  0.5  0.2500
  Zn  Zn13      1.0  0.31200000000000006  0.0  0.5  0.2500
  Zn  Zn14      1.0  0.688  0.5  0.0  0.2500
  Zn  Zn15      1.0  0.688  0.0  0.5  0.2500
  Zn  Zn16      1.0  0.31200000000000006  0.5  0.0  0.2500
