data_image0
_chemical_formula_structural       Pd8S8
_chemical_formula_sum              "Pd8 S8"
_cell_length_a       6.43
_cell_length_b       6.43
_cell_length_c       6.63
_cell_angle_alpha    90.0
_cell_angle_beta     90.0
_cell_angle_gamma    90.0

_space_group_name_H-M_alt    "P 1"
_space_group_IT_number       1

loop_
  _space_group_symop_operation_xyz
  'x, y, z'

loop_
  _atom_site_type_symbol
  _atom_site_label
  _atom_site_symmetry_multiplicity
  _atom_site_fract_x
  _atom_site_fract_y
  _atom_site_fract_z
  _atom_site_occupancy
  Pd  Pd1       1.0  0.0  0.0  0.24999999999999994  1.0000
  Pd  Pd2       1.0  0.0  0.0  0.75  1.0000
  Pd  Pd3       1.0  0.0  0.4999999999999999  0.0  1.0000
  Pd  Pd4       1.0  0.49999999999999994  0.0  0.49999999999999994  1.0000
  Pd  Pd5       1.0  0.47499999999999987  0.24999999999999994  0.0  1.0000
  Pd  Pd6       1.0  0.5250000000000001  0.75  0.0  1.0000
  Pd  Pd7       1.0  0.75  0.47499999999999987  0.49999999999999994  1.0000
  Pd  Pd8       1.0  0.24999999999999994  0.5250000000000001  0.49999999999999994  1.0000
  S   S1        1.0  0.2  0.3199999999999999  0.21999999999999997  1.0000
  S   S2        1.0  0.8  0.6799999999999999  0.21999999999999997  1.0000
  S   S3        1.0  0.6799999999999999  0.2  0.72  1.0000
  S   S4        1.0  0.3199999999999999  0.8  0.72  1.0000
  S   S5        1.0  0.8  0.6799999999999999  0.78  1.0000
  S   S6        1.0  0.2  0.3199999999999999  0.78  1.0000
  S   S7        1.0  0.3199999999999999  0.8  0.27999999999999997  1.0000
  S   S8        1.0  0.6799999999999999  0.2  0.27999999999999997  1.0000
