data_image0
_chemical_formula_structural       Co4Cr4O16
_chemical_formula_sum              "Co4 Cr4 O16"
_cell_length_a       5.524
_cell_length_b       8.308
_cell_length_c       6.234
_cell_angle_alpha    90.0
_cell_angle_beta     90.0
_cell_angle_gamma    90.0

_space_group_name_H-M_alt    "P 1"
_space_group_IT_number       1

loop_
  _space_group_symop_operation_xyz
  'x, y, z'

loop_
  _atom_site_type_symbol
  _atom_site_label
  _atom_site_symmetry_multiplicity
  _atom_site_fract_x
  _atom_site_fract_y
  _atom_site_fract_z
  _atom_site_occupancy
  Co  Co1       1.0  0.0  0.0  0.0  1.0000
  Co  Co2       1.0  0.0  0.0  0.5  1.0000
  Co  Co3       1.0  0.5  0.5  0.0  1.0000
  Co  Co4       1.0  0.5  0.5  0.5  1.0000
  Cr  Cr1       1.0  0.0  0.357  0.25  1.0000
  Cr  Cr2       1.0  0.0  0.6430000000000001  0.75  1.0000
  Cr  Cr3       1.0  0.5  0.857  0.25  1.0000
  Cr  Cr4       1.0  0.5  0.14300000000000002  0.75  1.0000
  O   O1        1.0  0.0  0.24  0.03300000000000001  1.0000
  O   O2        1.0  0.0  0.76  0.9670000000000001  1.0000
  O   O3        1.0  0.0  0.24  0.467  1.0000
  O   O4        1.0  0.0  0.76  0.533  1.0000
  O   O5        1.0  0.5  0.74  0.03300000000000001  1.0000
  O   O6        1.0  0.5  0.26  0.9670000000000001  1.0000
  O   O7        1.0  0.5  0.74  0.467  1.0000
  O   O8        1.0  0.5  0.26  0.533  1.0000
  O   O9        1.0  0.25  0.472  0.25  1.0000
  O   O10       1.0  0.25  0.528  0.75  1.0000
  O   O11       1.0  0.7499999999999999  0.528  0.75  1.0000
  O   O12       1.0  0.7499999999999999  0.472  0.25  1.0000
  O   O13       1.0  0.7499999999999999  0.9720000000000001  0.25  1.0000
  O   O14       1.0  0.7499999999999999  0.028000000000000025  0.75  1.0000
  O   O15       1.0  0.25  0.028000000000000025  0.75  1.0000
  O   O16       1.0  0.25  0.9720000000000001  0.25  1.0000
