data_image0
_chemical_formula_structural       Tc4Cl12
_chemical_formula_sum              "Tc4 Cl12"
_cell_length_a       5.986
_cell_length_b       9.725
_cell_length_c       6.194
_cell_angle_alpha    90.0
_cell_angle_beta     108.68699999999998
_cell_angle_gamma    90.0

_space_group_name_H-M_alt    "P 1"
_space_group_IT_number       1

loop_
  _space_group_symop_operation_xyz
  'x, y, z'

loop_
  _atom_site_type_symbol
  _atom_site_label
  _atom_site_symmetry_multiplicity
  _atom_site_fract_x
  _atom_site_fract_y
  _atom_site_fract_z
  _atom_site_occupancy
  Tc  Tc1       1.0  0.0  0.14708  0.0  1.0000
  Tc  Tc2       1.0  0.5  0.64708  0.0  1.0000
  Tc  Tc3       1.0  0.0  0.85292  0.0  1.0000
  Tc  Tc4       1.0  0.5  0.35292  0.0  1.0000
  Cl  Cl1       1.0  0.2495  0.0  0.2624  1.0000
  Cl  Cl2       1.0  0.7505  0.0  0.7375999999999999  1.0000
  Cl  Cl3       1.0  0.7495000000000002  0.5  0.2624  1.0000
  Cl  Cl4       1.0  0.25049999999999994  0.5  0.7375999999999999  1.0000
  Cl  Cl5       1.0  0.7409  0.1691  0.2247  1.0000
  Cl  Cl6       1.0  0.25909999999999994  0.1691  0.7752999999999999  1.0000
  Cl  Cl7       1.0  0.2408999999999999  0.6691  0.2247  1.0000
  Cl  Cl8       1.0  0.7591  0.6691  0.7752999999999999  1.0000
  Cl  Cl9       1.0  0.25909999999999994  0.8309  0.7752999999999999  1.0000
  Cl  Cl10      1.0  0.7409  0.8309  0.2247  1.0000
  Cl  Cl11      1.0  0.7591  0.33089999999999997  0.7752999999999999  1.0000
  Cl  Cl12      1.0  0.2408999999999999  0.33089999999999997  0.2247  1.0000
