data_image0
_chemical_formula_structural       Ba20Ge12
_chemical_formula_sum              "Ba20 Ge12"
_cell_length_a       8.519
_cell_length_b       8.519
_cell_length_c       16.554
_cell_angle_alpha    90.0
_cell_angle_beta     90.0
_cell_angle_gamma    90.0

_space_group_name_H-M_alt    "P 1"
_space_group_IT_number       1

loop_
  _space_group_symop_operation_xyz
  'x, y, z'

loop_
  _atom_site_type_symbol
  _atom_site_label
  _atom_site_symmetry_multiplicity
  _atom_site_fract_x
  _atom_site_fract_y
  _atom_site_fract_z
  _atom_site_occupancy
  Ba  Ba1       1.0  0.25  0.25  0.22962999999999995  1.0000
  Ba  Ba2       1.0  0.75  0.75  0.27037  1.0000
  Ba  Ba3       1.0  0.75  0.75  0.77037  1.0000
  Ba  Ba4       1.0  0.25  0.25  0.72963  1.0000
  Ba  Ba5       1.0  0.58295  0.06512  0.10416  1.0000
  Ba  Ba6       1.0  0.91705  0.43488  0.10416  1.0000
  Ba  Ba7       1.0  0.43488  0.58295  0.10416  1.0000
  Ba  Ba8       1.0  0.06512  0.91705  0.10416  1.0000
  Ba  Ba9       1.0  0.41705000000000003  0.56512  0.39583999999999997  1.0000
  Ba  Ba10      1.0  0.08294999999999986  0.93488  0.39583999999999997  1.0000
  Ba  Ba11      1.0  0.56512  0.08294999999999986  0.39583999999999997  1.0000
  Ba  Ba12      1.0  0.93488  0.41705000000000003  0.39583999999999997  1.0000
  Ba  Ba13      1.0  0.41705000000000003  0.93488  0.89584  1.0000
  Ba  Ba14      1.0  0.08294999999999986  0.56512  0.89584  1.0000
  Ba  Ba15      1.0  0.56512  0.41705000000000003  0.89584  1.0000
  Ba  Ba16      1.0  0.93488  0.08294999999999986  0.89584  1.0000
  Ba  Ba17      1.0  0.58295  0.43488  0.6041599999999999  1.0000
  Ba  Ba18      1.0  0.91705  0.06512  0.6041599999999999  1.0000
  Ba  Ba19      1.0  0.43488  0.91705  0.6041599999999999  1.0000
  Ba  Ba20      1.0  0.06512  0.58295  0.6041599999999999  1.0000
  Ge  Ge1       1.0  0.25  0.25  0.00811  1.0000
  Ge  Ge2       1.0  0.75  0.75  0.49189  1.0000
  Ge  Ge3       1.0  0.75  0.75  0.9918899999999999  1.0000
  Ge  Ge4       1.0  0.25  0.25  0.50811  1.0000
  Ge  Ge5       1.0  0.85635  0.14365  0.25  1.0000
  Ge  Ge6       1.0  0.64365  0.35635  0.25  1.0000
  Ge  Ge7       1.0  0.35635  0.85635  0.25  1.0000
  Ge  Ge8       1.0  0.14365  0.64365  0.25  1.0000
  Ge  Ge9       1.0  0.14365000000000006  0.85635  0.7499999999999999  1.0000
  Ge  Ge10      1.0  0.35634999999999994  0.64365  0.7499999999999999  1.0000
  Ge  Ge11      1.0  0.64365  0.14365000000000006  0.7499999999999999  1.0000
  Ge  Ge12      1.0  0.85635  0.35634999999999994  0.7499999999999999  1.0000
