data_image0
_chemical_formula_structural       Se8O24
_chemical_formula_sum              "Se8 O24"
_cell_length_a       9.527
_cell_length_b       9.527
_cell_length_c       5.171
_cell_angle_alpha    90.0
_cell_angle_beta     90.0
_cell_angle_gamma    90.0

_space_group_name_H-M_alt    "P 1"
_space_group_IT_number       1

loop_
  _space_group_symop_operation_xyz
  'x, y, z'

loop_
  _atom_site_type_symbol
  _atom_site_label
  _atom_site_symmetry_multiplicity
  _atom_site_fract_x
  _atom_site_fract_y
  _atom_site_fract_z
  _atom_site_occupancy
  Se  Se1       1.0  0.51302  0.2746  0.06295  1.0000
  Se  Se2       1.0  0.48697999999999997  0.7254  0.06295  1.0000
  Se  Se3       1.0  0.2746  0.48697999999999997  0.9370499999999999  1.0000
  Se  Se4       1.0  0.7254  0.51302  0.9370499999999999  1.0000
  Se  Se5       1.0  0.98698  0.7746  0.43705  1.0000
  Se  Se6       1.0  0.013020000000000032  0.2254  0.43705  1.0000
  Se  Se7       1.0  0.2254  0.98698  0.5629500000000001  1.0000
  Se  Se8       1.0  0.7746  0.013020000000000032  0.5629500000000001  1.0000
  O   O1        1.0  0.6029  0.3827  0.8388  1.0000
  O   O2        1.0  0.39709999999999995  0.6173  0.8388  1.0000
  O   O3        1.0  0.3827  0.39709999999999995  0.1612  1.0000
  O   O4        1.0  0.6173  0.6029  0.1612  1.0000
  O   O5        1.0  0.8971  0.8827  0.6612  1.0000
  O   O6        1.0  0.10289999999999999  0.11730000000000003  0.6612  1.0000
  O   O7        1.0  0.11730000000000003  0.8971  0.3388  1.0000
  O   O8        1.0  0.8827  0.10289999999999999  0.3388  1.0000
  O   O9        1.0  0.603  0.2585  0.3164  1.0000
  O   O10       1.0  0.397  0.7415  0.3164  1.0000
  O   O11       1.0  0.2585  0.397  0.6836  1.0000
  O   O12       1.0  0.7415  0.603  0.6836  1.0000
  O   O13       1.0  0.897  0.7585  0.18359999999999999  1.0000
  O   O14       1.0  0.10299999999999998  0.24149999999999996  0.18359999999999999  1.0000
  O   O15       1.0  0.24149999999999996  0.897  0.8164  1.0000
  O   O16       1.0  0.7585  0.10299999999999998  0.8164  1.0000
  O   O17       1.0  0.44609999999999994  0.1566  0.8917  1.0000
  O   O18       1.0  0.5539000000000001  0.8433999999999999  0.8917  1.0000
  O   O19       1.0  0.1566  0.5539000000000001  0.1083  1.0000
  O   O20       1.0  0.8433999999999999  0.44609999999999994  0.1083  1.0000
  O   O21       1.0  0.05390000000000005  0.6566  0.6083  1.0000
  O   O22       1.0  0.9460999999999999  0.34340000000000004  0.6083  1.0000
  O   O23       1.0  0.34340000000000004  0.05390000000000005  0.3917  1.0000
  O   O24       1.0  0.6566  0.9460999999999999  0.3917  1.0000
