data_image0
_chemical_formula_structural       Bi12Ba4Sr4
_chemical_formula_sum              "Bi12 Ba4 Sr4"
_cell_length_a       15.887
_cell_length_b       6.893
_cell_length_c       6.717
_cell_angle_alpha    90.0
_cell_angle_beta     90.0
_cell_angle_gamma    90.0

_space_group_name_H-M_alt    "P 1"
_space_group_IT_number       1

loop_
  _space_group_symop_operation_xyz
  'x, y, z'

loop_
  _atom_site_type_symbol
  _atom_site_label
  _atom_site_symmetry_multiplicity
  _atom_site_fract_x
  _atom_site_fract_y
  _atom_site_fract_z
  _atom_site_occupancy
  Bi  Bi1       1.0  0.6543299999999997  0.44141  0.0747  1.0000
  Bi  Bi2       1.0  0.84567  0.5585899999999999  0.0747  1.0000
  Bi  Bi3       1.0  0.84567  0.9414100000000002  0.4253  1.0000
  Bi  Bi4       1.0  0.6543299999999997  0.058589999999999975  0.4253  1.0000
  Bi  Bi5       1.0  0.3456700000000001  0.5585899999999999  0.9253  1.0000
  Bi  Bi6       1.0  0.15432999999999983  0.44141  0.9253  1.0000
  Bi  Bi7       1.0  0.15432999999999983  0.058589999999999975  0.5746999999999999  1.0000
  Bi  Bi8       1.0  0.3456700000000001  0.9414100000000002  0.5746999999999999  1.0000
  Bi  Bi9       1.0  0.5686199999999998  0.75  0.75  1.0000
  Bi  Bi10      1.0  0.93138  0.25  0.75  1.0000
  Bi  Bi11      1.0  0.43138000000000004  0.25  0.24999999999999994  1.0000
  Bi  Bi12      1.0  0.0686199999999999  0.75  0.24999999999999994  1.0000
  Ba  Ba1       1.0  0.7499999999999998  0.0  0.9483  0.6900
  Ba  Ba2       1.0  0.75  0.5  0.5516999999999999  0.6900
  Ba  Ba3       1.0  0.2500000000000001  0.0  0.05169999999999999  0.6900
  Ba  Ba4       1.0  0.24999999999999997  0.5  0.44830000000000003  0.6900
  Sr  Sr1       1.0  0.4995999999999999  0.75  0.24999999999999994  0.6100
  Sr  Sr2       1.0  0.0004000000000000669  0.25  0.24999999999999994  0.6100
  Sr  Sr3       1.0  0.5004000000000001  0.25  0.75  0.6100
  Sr  Sr4       1.0  0.9995999999999998  0.75  0.75  0.6100
  Sr  Sr5       1.0  0.7499999999999998  0.0  0.9483  0.3100
  Sr  Sr6       1.0  0.75  0.5  0.5516999999999999  0.3100
  Sr  Sr7       1.0  0.2500000000000001  0.0  0.05169999999999999  0.3100
  Sr  Sr8       1.0  0.24999999999999997  0.5  0.44830000000000003  0.3100
  Ba  Ba5       1.0  0.4995999999999999  0.75  0.24999999999999994  0.3900
  Ba  Ba6       1.0  0.0004000000000000669  0.25  0.24999999999999994  0.3900
  Ba  Ba7       1.0  0.5004000000000001  0.25  0.75  0.3900
  Ba  Ba8       1.0  0.9995999999999998  0.75  0.75  0.3900
