data_image0
_chemical_formula_structural       Ga3As3O12
_chemical_formula_sum              "Ga3 As3 O12"
_cell_length_a       4.994
_cell_length_b       4.994
_cell_length_c       11.3871
_cell_angle_alpha    90.0
_cell_angle_beta     90.0
_cell_angle_gamma    119.99999999999999

_space_group_name_H-M_alt    "P 1"
_space_group_IT_number       1

loop_
  _space_group_symop_operation_xyz
  'x, y, z'

loop_
  _atom_site_type_symbol
  _atom_site_label
  _atom_site_symmetry_multiplicity
  _atom_site_fract_x
  _atom_site_fract_y
  _atom_site_fract_z
  _atom_site_occupancy
  Ga  Ga1       1.0  0.44991  0.0  0.3333  1.0000
  Ga  Ga2       1.0  0.0  0.44991  0.6666333333333332  1.0000
  Ga  Ga3       1.0  0.5500899999999999  0.5500899999999999  0.9999666666666667  1.0000
  As  As1       1.0  0.44799999999999995  0.0  0.8332999999999998  1.0000
  As  As2       1.0  0.0  0.4479999999999999  0.1666333333333332  1.0000
  As  As3       1.0  0.552  0.552  0.49996666666666645  1.0000
  O   O1        1.0  0.39848  0.31858  0.38306999999999997  1.0000
  O   O2        1.0  0.68142  0.07990000000000003  0.7164033333333333  1.0000
  O   O3        1.0  0.9201  0.60152  0.04973666666666654  1.0000
  O   O4        1.0  0.31858  0.39848  0.61693  1.0000
  O   O5        1.0  0.60152  0.9200999999999999  0.9502633333333332  1.0000
  O   O6        1.0  0.07990000000000003  0.68142  0.28359666666666666  1.0000
  O   O7        1.0  0.39674  0.29595  0.87152  1.0000
  O   O8        1.0  0.7040500000000001  0.10078999999999999  0.20485333333333333  1.0000
  O   O9        1.0  0.8992100000000001  0.60326  0.5381866666666666  1.0000
  O   O10       1.0  0.29594999999999994  0.3967399999999999  0.12848  1.0000
  O   O11       1.0  0.6032599999999999  0.89921  0.46181333333333335  1.0000
  O   O12       1.0  0.10078999999999999  0.7040500000000001  0.7951466666666666  1.0000
