data_image0
_chemical_formula_structural       Hg12Ge8K8S32
_chemical_formula_sum              "Hg12 Ge8 K8 S32"
_cell_length_a       19.082
_cell_length_b       9.551
_cell_length_c       8.2871
_cell_angle_alpha    90.0
_cell_angle_beta     90.0
_cell_angle_gamma    90.0

_space_group_name_H-M_alt    "P 1"
_space_group_IT_number       1

loop_
  _space_group_symop_operation_xyz
  'x, y, z'

loop_
  _atom_site_type_symbol
  _atom_site_label
  _atom_site_symmetry_multiplicity
  _atom_site_fract_x
  _atom_site_fract_y
  _atom_site_fract_z
  _atom_site_occupancy
  Hg  Hg1       1.0  0.5  0.0  0.4839  1.0000
  Hg  Hg2       1.0  0.0  0.5  0.4839  1.0000
  Hg  Hg3       1.0  0.5  0.5  0.9839  1.0000
  Hg  Hg4       1.0  0.0  0.0  0.9839  1.0000
  Hg  Hg5       1.0  0.25455  0.54369  0.6506  1.0000
  Hg  Hg6       1.0  0.7454500000000001  0.45631  0.6506  1.0000
  Hg  Hg7       1.0  0.75455  0.9563099999999999  0.6506  1.0000
  Hg  Hg8       1.0  0.24545  0.04369000000000001  0.6506  1.0000
  Hg  Hg9       1.0  0.25455  0.04369000000000001  0.15059999999999985  1.0000
  Hg  Hg10      1.0  0.7454500000000001  0.9563099999999999  0.15059999999999985  1.0000
  Hg  Hg11      1.0  0.75455  0.45631  0.15059999999999985  1.0000
  Hg  Hg12      1.0  0.24545  0.54369  0.15059999999999985  1.0000
  Ge  Ge1       1.0  0.36519  0.7885  0.3385000000000001  1.0000
  Ge  Ge2       1.0  0.63481  0.21150000000000002  0.3385000000000001  1.0000
  Ge  Ge3       1.0  0.86519  0.7115  0.3385000000000001  1.0000
  Ge  Ge4       1.0  0.13480999999999999  0.2885  0.3385000000000001  1.0000
  Ge  Ge5       1.0  0.36519  0.2885  0.8385  1.0000
  Ge  Ge6       1.0  0.63481  0.7115  0.8385  1.0000
  Ge  Ge7       1.0  0.86519  0.21150000000000002  0.8385  1.0000
  Ge  Ge8       1.0  0.13480999999999999  0.7885  0.8385  1.0000
  K   K1        1.0  0.3886  0.8012  0.8517  1.0000
  K   K2        1.0  0.6113999999999999  0.19879999999999998  0.8517  1.0000
  K   K3        1.0  0.8886000000000001  0.6988  0.8517  1.0000
  K   K4        1.0  0.1114  0.30120000000000013  0.8517  1.0000
  K   K5        1.0  0.3886  0.30120000000000013  0.3517000000000001  1.0000
  K   K6        1.0  0.6113999999999999  0.6988  0.3517000000000001  1.0000
  K   K7        1.0  0.8886000000000001  0.19879999999999998  0.3517000000000001  1.0000
  K   K8        1.0  0.1114  0.8012  0.3517000000000001  1.0000
  S   S1        1.0  0.2703  0.7916  0.477  1.0000
  S   S2        1.0  0.7297  0.20840000000000003  0.477  1.0000
  S   S3        1.0  0.7703  0.7084  0.477  1.0000
  S   S4        1.0  0.22970000000000002  0.29159999999999986  0.477  1.0000
  S   S5        1.0  0.2703  0.29159999999999986  0.9770000000000001  1.0000
  S   S6        1.0  0.7297  0.7084  0.9770000000000001  1.0000
  S   S7        1.0  0.7703  0.20840000000000003  0.9770000000000001  1.0000
  S   S8        1.0  0.22970000000000002  0.7916  0.9770000000000001  1.0000
  S   S9        1.0  0.462  0.7679  0.49000000000000005  1.0000
  S   S10       1.0  0.538  0.23209999999999997  0.49000000000000005  1.0000
  S   S11       1.0  0.9620000000000001  0.7321  0.49000000000000005  1.0000
  S   S12       1.0  0.037999999999999985  0.2679  0.49000000000000005  1.0000
  S   S13       1.0  0.462  0.2679  0.99  1.0000
  S   S14       1.0  0.538  0.7321  0.99  1.0000
  S   S15       1.0  0.9620000000000001  0.23209999999999997  0.99  1.0000
  S   S16       1.0  0.037999999999999985  0.7679  0.99  1.0000
  S   S17       1.0  0.3753000000000001  0.4828  0.6952  1.0000
  S   S18       1.0  0.6246999999999999  0.5172  0.6952  1.0000
  S   S19       1.0  0.8753000000000001  0.017199999999999993  0.6952  1.0000
  S   S20       1.0  0.12469999999999992  0.9827999999999999  0.6952  1.0000
  S   S21       1.0  0.3753000000000001  0.9827999999999999  0.19520000000000007  1.0000
  S   S22       1.0  0.6246999999999999  0.017199999999999993  0.19520000000000007  1.0000
  S   S23       1.0  0.8753000000000001  0.5172  0.19520000000000007  1.0000
  S   S24       1.0  0.12469999999999992  0.4828  0.19520000000000007  1.0000
  S   S25       1.0  0.1321  0.5972  0.6884  1.0000
  S   S26       1.0  0.8679  0.40280000000000005  0.6884  1.0000
  S   S27       1.0  0.6321  0.9028000000000002  0.6884  1.0000
  S   S28       1.0  0.3679  0.09719999999999995  0.6884  1.0000
  S   S29       1.0  0.1321  0.09719999999999995  0.18840000000000012  1.0000
  S   S30       1.0  0.8679  0.9028000000000002  0.18840000000000012  1.0000
  S   S31       1.0  0.6321  0.40280000000000005  0.18840000000000012  1.0000
  S   S32       1.0  0.3679  0.5972  0.18840000000000012  1.0000
