data_image0
_chemical_formula_structural       U2P4S36
_chemical_formula_sum              "U2 P4 S36"
_cell_length_a       7.7621
_cell_length_b       7.7621
_cell_length_c       9.691
_cell_angle_alpha    90.0
_cell_angle_beta     90.0
_cell_angle_gamma    90.0

_space_group_name_H-M_alt    "P 1"
_space_group_IT_number       1

loop_
  _space_group_symop_operation_xyz
  'x, y, z'

loop_
  _atom_site_type_symbol
  _atom_site_label
  _atom_site_symmetry_multiplicity
  _atom_site_fract_x
  _atom_site_fract_y
  _atom_site_fract_z
  _atom_site_occupancy
  U   U1        1.0  0.0  0.0  0.25  1.0000
  U   U2        1.0  0.0  0.0  0.75  1.0000
  P   P1        1.0  0.77361  0.77361  0.0  1.0000
  P   P2        1.0  0.22639  0.22639  0.0  1.0000
  P   P3        1.0  0.22639  0.77361  0.5  1.0000
  P   P4        1.0  0.77361  0.22639  0.5  1.0000
  S   S1        1.0  0.5  0.5  0.1304  0.5000
  S   S2        1.0  0.5  0.5  0.6304  0.5000
  S   S3        1.0  0.5  0.5  0.36960000000000004  0.5000
  S   S4        1.0  0.5  0.5  0.8696  0.5000
  S   S5        1.0  0.7796  0.0432  0.0  0.5000
  S   S6        1.0  0.22040000000000007  0.9568000000000001  0.0  0.5000
  S   S7        1.0  0.9568000000000001  0.7796  0.5  0.5000
  S   S8        1.0  0.0432  0.22040000000000007  0.5  0.5000
  S   S9        1.0  0.22040000000000007  0.0432  0.5  0.5000
  S   S10       1.0  0.7796  0.9568000000000001  0.5  0.5000
  S   S11       1.0  0.0432  0.7796  0.0  0.5000
  S   S12       1.0  0.9568000000000001  0.22040000000000007  0.0  0.5000
  S   S13       1.0  0.12672  0.31435  0.1731  0.5000
  S   S14       1.0  0.8732800000000002  0.68565  0.1731  0.5000
  S   S15       1.0  0.68565  0.12672  0.6731  0.5000
  S   S16       1.0  0.31435  0.8732800000000002  0.6731  0.5000
  S   S17       1.0  0.8732800000000002  0.31435  0.32689999999999997  0.5000
  S   S18       1.0  0.12672  0.68565  0.32689999999999997  0.5000
  S   S19       1.0  0.31435  0.12672  0.8268999999999999  0.5000
  S   S20       1.0  0.68565  0.8732800000000002  0.8268999999999999  0.5000
  S   S21       1.0  0.8732800000000002  0.68565  0.8268999999999999  0.5000
  S   S22       1.0  0.12672  0.31435  0.8268999999999999  0.5000
  S   S23       1.0  0.31435  0.8732800000000002  0.32689999999999997  0.5000
  S   S24       1.0  0.68565  0.12672  0.32689999999999997  0.5000
  S   S25       1.0  0.12672  0.68565  0.6731  0.5000
  S   S26       1.0  0.8732800000000002  0.31435  0.6731  0.5000
  S   S27       1.0  0.68565  0.8732800000000002  0.1731  0.5000
  S   S28       1.0  0.31435  0.12672  0.1731  0.5000
  S   S29       1.0  0.49799999999999994  0.7162000000000001  0.0  0.5000
  S   S30       1.0  0.5020000000000001  0.2838000000000001  0.0  0.5000
  S   S31       1.0  0.2838000000000001  0.49799999999999994  0.5  0.5000
  S   S32       1.0  0.7162000000000001  0.5020000000000001  0.5  0.5000
  S   S33       1.0  0.5020000000000001  0.7162000000000001  0.5  0.5000
  S   S34       1.0  0.49799999999999994  0.2838000000000001  0.5  0.5000
  S   S35       1.0  0.7162000000000001  0.49799999999999994  0.0  0.5000
  S   S36       1.0  0.2838000000000001  0.5020000000000001  0.0  0.5000
