data_image0
_chemical_formula_structural       Be4P8O24
_chemical_formula_sum              "Be4 P8 O24"
_cell_length_a       6.959
_cell_length_b       12.853
_cell_length_c       4.839
_cell_angle_alpha    90.0
_cell_angle_beta     106.79
_cell_angle_gamma    90.0

_space_group_name_H-M_alt    "P 1"
_space_group_IT_number       1

loop_
  _space_group_symop_operation_xyz
  'x, y, z'

loop_
  _atom_site_type_symbol
  _atom_site_label
  _atom_site_symmetry_multiplicity
  _atom_site_fract_x
  _atom_site_fract_y
  _atom_site_fract_z
  _atom_site_occupancy
  Be  Be1       1.0  0.7641  0.0665  0.1288  1.0000
  Be  Be2       1.0  0.2641  0.4335  0.6288  1.0000
  Be  Be3       1.0  0.2359  0.9335  0.8712  1.0000
  Be  Be4       1.0  0.7359000000000001  0.5665  0.3712  1.0000
  P   P1        1.0  0.17111  0.13135  0.15001  1.0000
  P   P2        1.0  0.67111  0.36865  0.65001  1.0000
  P   P3        1.0  0.82889  0.86865  0.84999  1.0000
  P   P4        1.0  0.32889  0.63135  0.3499900000000001  1.0000
  P   P5        1.0  0.58107  0.15021  0.54924  1.0000
  P   P6        1.0  0.08106999999999998  0.34979  0.04923999999999996  1.0000
  P   P7        1.0  0.41893  0.84979  0.4507600000000001  1.0000
  P   P8        1.0  0.9189300000000001  0.65021  0.95076  1.0000
  O   O1        1.0  0.6496000000000001  0.2623  0.47270000000000006  1.0000
  O   O2        1.0  0.14959999999999996  0.23770000000000002  0.9727000000000001  1.0000
  O   O3        1.0  0.35039999999999993  0.7377  0.5272999999999999  1.0000
  O   O4        1.0  0.8504  0.7623  0.027299999999999935  1.0000
  O   O5        1.0  0.34510000000000013  0.15614  0.43460000000000004  1.0000
  O   O6        1.0  0.8451  0.34386  0.9346  1.0000
  O   O7        1.0  0.6548999999999999  0.84386  0.5653999999999999  1.0000
  O   O8        1.0  0.15489999999999993  0.65614  0.06539999999999996  1.0000
  O   O9        1.0  0.48910000000000003  0.38661  0.744  1.0000
  O   O10       1.0  0.9891000000000001  0.11338999999999999  0.244  1.0000
  O   O11       1.0  0.5108999999999999  0.61339  0.256  1.0000
  O   O12       1.0  0.01089999999999997  0.88661  0.756  1.0000
  O   O13       1.0  0.7336  0.44762  0.47100000000000003  1.0000
  O   O14       1.0  0.23360000000000003  0.05237999999999998  0.9710000000000001  1.0000
  O   O15       1.0  0.26639999999999997  0.55238  0.5289999999999999  1.0000
  O   O16       1.0  0.7664  0.94762  0.028999999999999967  1.0000
  O   O17       1.0  0.6626000000000001  0.07169  0.3878  1.0000
  O   O18       1.0  0.16260000000000013  0.42830999999999997  0.8878  1.0000
  O   O19       1.0  0.3373999999999999  0.9283099999999999  0.6122000000000001  1.0000
  O   O20       1.0  0.8373999999999999  0.57169  0.11220000000000002  1.0000
  O   O21       1.0  0.6332000000000001  0.13873  0.8669  1.0000
  O   O22       1.0  0.13319999999999999  0.36127  0.3669  1.0000
  O   O23       1.0  0.3667999999999999  0.8612699999999999  0.1331  1.0000
  O   O24       1.0  0.8668  0.63873  0.6331  1.0000
