data_image0
_chemical_formula_structural       Hg2Te8Sn2Rb4
_chemical_formula_sum              "Hg2 Te8 Sn2 Rb4"
_cell_length_a       8.766
_cell_length_b       8.766
_cell_length_c       7.353
_cell_angle_alpha    90.0
_cell_angle_beta     90.0
_cell_angle_gamma    90.0

_space_group_name_H-M_alt    "P 1"
_space_group_IT_number       1

loop_
  _space_group_symop_operation_xyz
  'x, y, z'

loop_
  _atom_site_type_symbol
  _atom_site_label
  _atom_site_symmetry_multiplicity
  _atom_site_fract_x
  _atom_site_fract_y
  _atom_site_fract_z
  _atom_site_occupancy
  Hg  Hg1       1.0  0.0  0.0  0.0  1.0000
  Hg  Hg2       1.0  0.5  0.5  0.49999999999999994  1.0000
  Te  Te1       1.0  0.1711  0.1711  0.2586  1.0000
  Te  Te2       1.0  0.1711  0.8289  0.7414  1.0000
  Te  Te3       1.0  0.8289  0.8289  0.2586  1.0000
  Te  Te4       1.0  0.8289  0.1711  0.7414  1.0000
  Te  Te5       1.0  0.6711  0.6711  0.7585999999999999  1.0000
  Te  Te6       1.0  0.6711  0.32889999999999997  0.2414  1.0000
  Te  Te7       1.0  0.32889999999999997  0.32889999999999997  0.7585999999999999  1.0000
  Te  Te8       1.0  0.32889999999999997  0.6711  0.2414  1.0000
  Sn  Sn1       1.0  0.0  0.0  0.4999999999999999  1.0000
  Sn  Sn2       1.0  0.5  0.5  0.0  1.0000
  Rb  Rb1       1.0  0.5  0.0  0.0  1.0000
  Rb  Rb2       1.0  0.0  0.5  0.0  1.0000
  Rb  Rb3       1.0  0.0  0.5  0.49999999999999994  1.0000
  Rb  Rb4       1.0  0.5  0.0  0.49999999999999994  1.0000
