data_image0
_chemical_formula_structural       Tl4Cd2Ge2Te8
_chemical_formula_sum              "Tl4 Cd2 Ge2 Te8"
_cell_length_a       8.3825
_cell_length_b       8.3825
_cell_length_c       7.0775
_cell_angle_alpha    90.0
_cell_angle_beta     90.0
_cell_angle_gamma    90.0

_space_group_name_H-M_alt    "P 1"
_space_group_IT_number       1

loop_
  _space_group_symop_operation_xyz
  'x, y, z'

loop_
  _atom_site_type_symbol
  _atom_site_label
  _atom_site_symmetry_multiplicity
  _atom_site_fract_x
  _atom_site_fract_y
  _atom_site_fract_z
  _atom_site_occupancy
  Tl  Tl1       1.0  0.0  0.5  0.0  1.0000
  Tl  Tl2       1.0  0.5  0.0  0.0  1.0000
  Tl  Tl3       1.0  0.5  0.0  0.5  1.0000
  Tl  Tl4       1.0  0.0  0.5  0.5  1.0000
  Cd  Cd1       1.0  0.0  0.0  0.5  1.0000
  Cd  Cd2       1.0  0.5  0.5  0.0  1.0000
  Ge  Ge1       1.0  0.0  0.0  0.0  1.0000
  Ge  Ge2       1.0  0.5  0.5  0.5  1.0000
  Te  Te1       1.0  0.17494  0.17494  0.77478  1.0000
  Te  Te2       1.0  0.82506  0.82506  0.77478  1.0000
  Te  Te3       1.0  0.17494  0.82506  0.22522  1.0000
  Te  Te4       1.0  0.82506  0.17494  0.22522  1.0000
  Te  Te5       1.0  0.67494  0.67494  0.27478  1.0000
  Te  Te6       1.0  0.32506  0.32506  0.27478  1.0000
  Te  Te7       1.0  0.67494  0.32506  0.7252200000000001  1.0000
  Te  Te8       1.0  0.32506  0.67494  0.7252200000000001  1.0000
