data_image0
_chemical_formula_structural       La2Cu8P6
_chemical_formula_sum              "La2 Cu8 P6"
_cell_length_a       5.7881
_cell_length_b       5.7881
_cell_length_c       7.353
_cell_angle_alpha    90.0
_cell_angle_beta     90.0
_cell_angle_gamma    90.0

_space_group_name_H-M_alt    "P 1"
_space_group_IT_number       1

loop_
  _space_group_symop_operation_xyz
  'x, y, z'

loop_
  _atom_site_type_symbol
  _atom_site_label
  _atom_site_symmetry_multiplicity
  _atom_site_fract_x
  _atom_site_fract_y
  _atom_site_fract_z
  _atom_site_occupancy
  La  La1       1.0  0.24999999999999994  0.24999999999999994  0.02013  1.0000
  La  La2       1.0  0.75  0.75  0.9798699999999999  1.0000
  Cu  Cu1       1.0  0.48269  0.01731  0.6725899999999999  1.0000
  Cu  Cu2       1.0  0.017309999999999992  0.48269  0.6725899999999999  1.0000
  Cu  Cu3       1.0  0.48269  0.48269  0.6725899999999999  1.0000
  Cu  Cu4       1.0  0.01731  0.017309999999999992  0.6725899999999999  1.0000
  Cu  Cu5       1.0  0.5173099999999998  0.51731  0.32740999999999987  1.0000
  Cu  Cu6       1.0  0.98269  0.98269  0.32740999999999987  1.0000
  Cu  Cu7       1.0  0.51731  0.98269  0.32740999999999987  1.0000
  Cu  Cu8       1.0  0.98269  0.5173099999999998  0.32740999999999987  1.0000
  P   P1        1.0  0.75  0.24999999999999994  0.8465999999999999  1.0000
  P   P2        1.0  0.24999999999999997  0.75  0.8465999999999999  1.0000
  P   P3        1.0  0.24999999999999994  0.75  0.1534  1.0000
  P   P4        1.0  0.75  0.24999999999999997  0.1534  1.0000
  P   P5        1.0  0.24999999999999994  0.24999999999999994  0.4755999999999999  1.0000
  P   P6        1.0  0.75  0.75  0.5244  1.0000
