data_image0
_chemical_formula_structural       Ba2Cu8V2P8O34
_chemical_formula_sum              "Ba2 Cu8 V2 P8 O34"
_cell_length_a       9.5598
_cell_length_b       9.5598
_cell_length_c       7.16
_cell_angle_alpha    90.0
_cell_angle_beta     90.0
_cell_angle_gamma    90.0

_space_group_name_H-M_alt    "P 1"
_space_group_IT_number       1

loop_
  _space_group_symop_operation_xyz
  'x, y, z'

loop_
  _atom_site_type_symbol
  _atom_site_label
  _atom_site_symmetry_multiplicity
  _atom_site_fract_x
  _atom_site_fract_y
  _atom_site_fract_z
  _atom_site_occupancy
  Ba  Ba1       1.0  0.0  0.0  0.0  1.0000
  Ba  Ba2       1.0  0.5  0.5  0.0  1.0000
  Cu  Cu1       1.0  0.26388  0.9847799999999999  0.40702  1.0000
  Cu  Cu2       1.0  0.73612  0.015220000000000122  0.40702  1.0000
  Cu  Cu3       1.0  0.23612  0.48477999999999977  0.5929800000000001  1.0000
  Cu  Cu4       1.0  0.76388  0.5152200000000001  0.5929800000000001  1.0000
  Cu  Cu5       1.0  0.9847799999999999  0.26388  0.5929800000000001  1.0000
  Cu  Cu6       1.0  0.015220000000000122  0.73612  0.5929800000000001  1.0000
  Cu  Cu7       1.0  0.48477999999999977  0.23612  0.40702  1.0000
  Cu  Cu8       1.0  0.5152200000000001  0.76388  0.40702  1.0000
  V   V1        1.0  0.5  0.0  0.977  1.0000
  V   V2        1.0  0.0  0.5  0.02300000000000002  1.0000
  P   P1        1.0  0.27926  0.18857  0.7391  1.0000
  P   P2        1.0  0.7207399999999999  0.81143  0.7391  1.0000
  P   P3        1.0  0.22073999999999996  0.68857  0.2609  1.0000
  P   P4        1.0  0.7792600000000001  0.31143  0.2609  1.0000
  P   P5        1.0  0.18857  0.27926  0.2609  1.0000
  P   P6        1.0  0.81143  0.7207399999999999  0.2609  1.0000
  P   P7        1.0  0.68857  0.22073999999999996  0.7391  1.0000
  P   P8        1.0  0.31143  0.7792600000000001  0.7391  1.0000
  O   O1        1.0  0.3475  0.1336  0.5535  1.0000
  O   O2        1.0  0.6525000000000001  0.8664  0.5535  1.0000
  O   O3        1.0  0.15250000000000002  0.6335999999999999  0.4465  1.0000
  O   O4        1.0  0.8474999999999999  0.3664  0.4465  1.0000
  O   O5        1.0  0.1336  0.3475  0.4465  1.0000
  O   O6        1.0  0.8664  0.6525000000000001  0.4465  1.0000
  O   O7        1.0  0.6335999999999999  0.15250000000000002  0.5535  1.0000
  O   O8        1.0  0.3664  0.8474999999999999  0.5535  1.0000
  O   O9        1.0  0.12139999999999998  0.162  0.7293  1.0000
  O   O10       1.0  0.8785999999999999  0.8379999999999999  0.7293  1.0000
  O   O11       1.0  0.37860000000000005  0.662  0.27070000000000005  1.0000
  O   O12       1.0  0.6214  0.33799999999999997  0.27070000000000005  1.0000
  O   O13       1.0  0.162  0.12139999999999998  0.27070000000000005  1.0000
  O   O14       1.0  0.8379999999999999  0.8785999999999999  0.27070000000000005  1.0000
  O   O15       1.0  0.662  0.37860000000000005  0.7293  1.0000
  O   O16       1.0  0.33799999999999997  0.6214  0.7293  1.0000
  O   O17       1.0  0.3334  0.1036  0.9057  1.0000
  O   O18       1.0  0.6666000000000001  0.8964000000000001  0.9057  1.0000
  O   O19       1.0  0.16660000000000003  0.6036  0.09430000000000004  1.0000
  O   O20       1.0  0.8333999999999999  0.3964  0.09430000000000004  1.0000
  O   O21       1.0  0.1036  0.3334  0.09430000000000004  1.0000
  O   O22       1.0  0.8964000000000001  0.6666000000000001  0.09430000000000004  1.0000
  O   O23       1.0  0.6036  0.16660000000000003  0.9057  1.0000
  O   O24       1.0  0.3964  0.8333999999999999  0.9057  1.0000
  O   O25       1.0  0.5  0.0  0.2035  1.0000
  O   O26       1.0  0.0  0.5  0.7965  1.0000
  O   O27       1.0  0.3162  0.344  0.7532  1.0000
  O   O28       1.0  0.6838  0.656  0.7532  1.0000
  O   O29       1.0  0.18380000000000002  0.844  0.24680000000000002  1.0000
  O   O30       1.0  0.8162  0.15600000000000003  0.24680000000000002  1.0000
  O   O31       1.0  0.344  0.3162  0.24680000000000002  1.0000
  O   O32       1.0  0.656  0.6838  0.24680000000000002  1.0000
  O   O33       1.0  0.844  0.18380000000000002  0.7532  1.0000
  O   O34       1.0  0.15600000000000003  0.8162  0.7532  1.0000
