data_image0
_chemical_formula_structural       Mo56Cu14O192N4
_chemical_formula_sum              "Mo56 Cu14 O192 N4"
_cell_length_a       17.2929
_cell_length_b       17.2929
_cell_length_c       19.8829
_cell_angle_alpha    90.0
_cell_angle_beta     90.0
_cell_angle_gamma    90.0

_space_group_name_H-M_alt    "P 1"
_space_group_IT_number       1

loop_
  _space_group_symop_operation_xyz
  'x, y, z'

loop_
  _atom_site_type_symbol
  _atom_site_label
  _atom_site_symmetry_multiplicity
  _atom_site_fract_x
  _atom_site_fract_y
  _atom_site_fract_z
  _atom_site_occupancy
  Mo  Mo1       1.0  0.62243  0.1018  0.0  1.0000
  Mo  Mo2       1.0  0.3775699999999999  0.8981999999999999  0.0  1.0000
  Mo  Mo3       1.0  0.8981999999999999  0.62243  0.0  1.0000
  Mo  Mo4       1.0  0.1018  0.3775699999999999  0.0  1.0000
  Mo  Mo5       1.0  0.12243000000000004  0.6018  0.5  1.0000
  Mo  Mo6       1.0  0.87757  0.3982  0.5  1.0000
  Mo  Mo7       1.0  0.3982  0.12243000000000004  0.5  1.0000
  Mo  Mo8       1.0  0.6018  0.87757  0.5  1.0000
  Mo  Mo9       1.0  0.7792  0.029269999999999997  0.08218000000000002  1.0000
  Mo  Mo10      1.0  0.2208  0.9707299999999999  0.08218000000000002  1.0000
  Mo  Mo11      1.0  0.9707299999999999  0.7792  0.08218000000000002  1.0000
  Mo  Mo12      1.0  0.029269999999999997  0.2208  0.08218000000000002  1.0000
  Mo  Mo13      1.0  0.2791999999999999  0.52927  0.58218  1.0000
  Mo  Mo14      1.0  0.7208  0.47073  0.58218  1.0000
  Mo  Mo15      1.0  0.47073  0.2791999999999999  0.58218  1.0000
  Mo  Mo16      1.0  0.52927  0.7208  0.58218  1.0000
  Mo  Mo17      1.0  0.2208  0.9707299999999999  0.9178200000000001  1.0000
  Mo  Mo18      1.0  0.7792  0.029269999999999997  0.9178200000000001  1.0000
  Mo  Mo19      1.0  0.029269999999999997  0.2208  0.9178200000000001  1.0000
  Mo  Mo20      1.0  0.9707299999999999  0.7792  0.9178200000000001  1.0000
  Mo  Mo21      1.0  0.7208  0.47073  0.41782  1.0000
  Mo  Mo22      1.0  0.2791999999999999  0.52927  0.41782  1.0000
  Mo  Mo23      1.0  0.52927  0.7208  0.41782  1.0000
  Mo  Mo24      1.0  0.47073  0.2791999999999999  0.41782  1.0000
  Mo  Mo25      1.0  0.64977  0.11036  0.17037  1.0000
  Mo  Mo26      1.0  0.35023000000000004  0.88964  0.17037  1.0000
  Mo  Mo27      1.0  0.88964  0.64977  0.17037  1.0000
  Mo  Mo28      1.0  0.11036  0.35023000000000004  0.17037  1.0000
  Mo  Mo29      1.0  0.14976999999999996  0.61036  0.67037  1.0000
  Mo  Mo30      1.0  0.85023  0.38963999999999993  0.67037  1.0000
  Mo  Mo31      1.0  0.38963999999999993  0.14976999999999996  0.67037  1.0000
  Mo  Mo32      1.0  0.61036  0.85023  0.67037  1.0000
  Mo  Mo33      1.0  0.35023000000000004  0.88964  0.8296300000000001  1.0000
  Mo  Mo34      1.0  0.64977  0.11036  0.8296300000000001  1.0000
  Mo  Mo35      1.0  0.11036  0.35023000000000004  0.8296300000000001  1.0000
  Mo  Mo36      1.0  0.88964  0.64977  0.8296300000000001  1.0000
  Mo  Mo37      1.0  0.85023  0.38963999999999993  0.32963000000000003  1.0000
  Mo  Mo38      1.0  0.14976999999999996  0.61036  0.32963000000000003  1.0000
  Mo  Mo39      1.0  0.61036  0.85023  0.32963000000000003  1.0000
  Mo  Mo40      1.0  0.38963999999999993  0.14976999999999996  0.32963000000000003  1.0000
  Mo  Mo41      1.0  0.69951  0.25734  0.08222  1.0000
  Mo  Mo42      1.0  0.30049000000000003  0.74266  0.08222  1.0000
  Mo  Mo43      1.0  0.74266  0.69951  0.08222  1.0000
  Mo  Mo44      1.0  0.25734  0.30049000000000003  0.08222  1.0000
  Mo  Mo45      1.0  0.19951000000000008  0.75734  0.58222  1.0000
  Mo  Mo46      1.0  0.80049  0.24266  0.58222  1.0000
  Mo  Mo47      1.0  0.24266  0.19951000000000008  0.58222  1.0000
  Mo  Mo48      1.0  0.75734  0.80049  0.58222  1.0000
  Mo  Mo49      1.0  0.30049000000000003  0.74266  0.9177800000000002  1.0000
  Mo  Mo50      1.0  0.69951  0.25734  0.9177800000000002  1.0000
  Mo  Mo51      1.0  0.25734  0.30049000000000003  0.9177800000000002  1.0000
  Mo  Mo52      1.0  0.74266  0.69951  0.9177800000000002  1.0000
  Mo  Mo53      1.0  0.80049  0.24266  0.41778000000000004  1.0000
  Mo  Mo54      1.0  0.19951000000000008  0.75734  0.41778000000000004  1.0000
  Mo  Mo55      1.0  0.75734  0.80049  0.41778000000000004  1.0000
  Mo  Mo56      1.0  0.24266  0.19951000000000008  0.41778000000000004  1.0000
  Cu  Cu1       1.0  0.0  0.0  0.0  1.0000
  Cu  Cu2       1.0  0.5  0.5  0.5  1.0000
  Cu  Cu3       1.0  0.8182  0.85619  0.0  1.0000
  Cu  Cu4       1.0  0.18179999999999996  0.14381  0.0  1.0000
  Cu  Cu5       1.0  0.14381  0.8182  0.0  1.0000
  Cu  Cu6       1.0  0.85619  0.18179999999999996  0.0  1.0000
  Cu  Cu7       1.0  0.31820000000000004  0.35619  0.5  1.0000
  Cu  Cu8       1.0  0.6818  0.64381  0.5  1.0000
  Cu  Cu9       1.0  0.64381  0.31820000000000004  0.5  1.0000
  Cu  Cu10      1.0  0.35619  0.6818  0.5  1.0000
  Cu  Cu11      1.0  0.5  0.0  0.25  0.5000
  Cu  Cu12      1.0  0.0  0.5  0.25  0.5000
  Cu  Cu13      1.0  0.0  0.5  0.75  0.5000
  Cu  Cu14      1.0  0.5  0.0  0.75  0.5000
  O   O1        1.0  0.7102999999999999  0.1315  0.2354  1.0000
  O   O2        1.0  0.28970000000000007  0.8685  0.2354  1.0000
  O   O3        1.0  0.8685  0.7102999999999999  0.2354  1.0000
  O   O4        1.0  0.1315  0.28970000000000007  0.2354  1.0000
  O   O5        1.0  0.21029999999999993  0.6315  0.7354  1.0000
  O   O6        1.0  0.7897000000000001  0.3685  0.7354  1.0000
  O   O7        1.0  0.3685  0.21029999999999993  0.7354  1.0000
  O   O8        1.0  0.6315  0.7897000000000001  0.7354  1.0000
  O   O9        1.0  0.28970000000000007  0.8685  0.7646  1.0000
  O   O10       1.0  0.7102999999999999  0.1315  0.7646  1.0000
  O   O11       1.0  0.1315  0.28970000000000007  0.7646  1.0000
  O   O12       1.0  0.8685  0.7102999999999999  0.7646  1.0000
  O   O13       1.0  0.7897000000000001  0.3685  0.2646  1.0000
  O   O14       1.0  0.21029999999999993  0.6315  0.2646  1.0000
  O   O15       1.0  0.6315  0.7897000000000001  0.2646  1.0000
  O   O16       1.0  0.3685  0.21029999999999993  0.2646  1.0000
  O   O17       1.0  0.6533  0.3442  0.07360000000000001  1.0000
  O   O18       1.0  0.3467  0.6557999999999999  0.07360000000000001  1.0000
  O   O19       1.0  0.6557999999999999  0.6533  0.07360000000000001  1.0000
  O   O20       1.0  0.3442  0.3467  0.07360000000000001  1.0000
  O   O21       1.0  0.15329999999999996  0.8442000000000001  0.5736  1.0000
  O   O22       1.0  0.8467  0.1558  0.5736  1.0000
  O   O23       1.0  0.1558  0.15329999999999996  0.5736  1.0000
  O   O24       1.0  0.8442000000000001  0.8467  0.5736  1.0000
  O   O25       1.0  0.3467  0.6557999999999999  0.9264000000000001  1.0000
  O   O26       1.0  0.6533  0.3442  0.9264000000000001  1.0000
  O   O27       1.0  0.3442  0.3467  0.9264000000000001  1.0000
  O   O28       1.0  0.6557999999999999  0.6533  0.9264000000000001  1.0000
  O   O29       1.0  0.8467  0.1558  0.42640000000000006  1.0000
  O   O30       1.0  0.15329999999999996  0.8442000000000001  0.42640000000000006  1.0000
  O   O31       1.0  0.8442000000000001  0.8467  0.42640000000000006  1.0000
  O   O32       1.0  0.1558  0.15329999999999996  0.42640000000000006  1.0000
  O   O33       1.0  0.7748  0.2755  0.1347  1.0000
  O   O34       1.0  0.22519999999999996  0.7244999999999999  0.1347  1.0000
  O   O35       1.0  0.7244999999999999  0.7748  0.1347  1.0000
  O   O36       1.0  0.2755  0.22519999999999996  0.1347  1.0000
  O   O37       1.0  0.27479999999999993  0.7755000000000001  0.6347  1.0000
  O   O38       1.0  0.7252  0.22449999999999998  0.6347  1.0000
  O   O39       1.0  0.22449999999999998  0.27479999999999993  0.6347  1.0000
  O   O40       1.0  0.7755000000000001  0.7252  0.6347  1.0000
  O   O41       1.0  0.22519999999999996  0.7244999999999999  0.8653  1.0000
  O   O42       1.0  0.7748  0.2755  0.8653  1.0000
  O   O43       1.0  0.2755  0.22519999999999996  0.8653  1.0000
  O   O44       1.0  0.7244999999999999  0.7748  0.8653  1.0000
  O   O45       1.0  0.7252  0.22449999999999998  0.36530000000000007  1.0000
  O   O46       1.0  0.27479999999999993  0.7755000000000001  0.36530000000000007  1.0000
  O   O47       1.0  0.7755000000000001  0.7252  0.36530000000000007  1.0000
  O   O48       1.0  0.22449999999999998  0.27479999999999993  0.36530000000000007  1.0000
  O   O49       1.0  0.7985  0.9312000000000001  0.0732  1.0000
  O   O50       1.0  0.2015  0.0688  0.0732  1.0000
  O   O51       1.0  0.0688  0.7985  0.0732  1.0000
  O   O52       1.0  0.9312000000000001  0.2015  0.0732  1.0000
  O   O53       1.0  0.2985  0.4312  0.5732  1.0000
  O   O54       1.0  0.7014999999999999  0.5688  0.5732  1.0000
  O   O55       1.0  0.5688  0.2985  0.5732  1.0000
  O   O56       1.0  0.4312  0.7014999999999999  0.5732  1.0000
  O   O57       1.0  0.2015  0.0688  0.9268000000000001  1.0000
  O   O58       1.0  0.7985  0.9312000000000001  0.9268000000000001  1.0000
  O   O59       1.0  0.9312000000000001  0.2015  0.9268000000000001  1.0000
  O   O60       1.0  0.0688  0.7985  0.9268000000000001  1.0000
  O   O61       1.0  0.7014999999999999  0.5688  0.4268  1.0000
  O   O62       1.0  0.2985  0.4312  0.4268  1.0000
  O   O63       1.0  0.4312  0.7014999999999999  0.4268  1.0000
  O   O64       1.0  0.5688  0.2985  0.4268  1.0000
  O   O65       1.0  0.7632  0.2563  0.0  1.0000
  O   O66       1.0  0.2368  0.7437  0.0  1.0000
  O   O67       1.0  0.7437  0.7632  0.0  1.0000
  O   O68       1.0  0.2563  0.2368  0.0  1.0000
  O   O69       1.0  0.2631999999999999  0.7562999999999999  0.5  1.0000
  O   O70       1.0  0.7367999999999999  0.24370000000000003  0.5  1.0000
  O   O71       1.0  0.24370000000000003  0.2631999999999999  0.5  1.0000
  O   O72       1.0  0.7562999999999999  0.7367999999999999  0.5  1.0000
  O   O73       1.0  0.6893  0.0165  0.0  1.0000
  O   O74       1.0  0.3107  0.9835  0.0  1.0000
  O   O75       1.0  0.9835  0.6893  0.0  1.0000
  O   O76       1.0  0.0165  0.3107  0.0  1.0000
  O   O77       1.0  0.18930000000000002  0.5165  0.5  1.0000
  O   O78       1.0  0.8107  0.4835  0.5  1.0000
  O   O79       1.0  0.4835  0.18930000000000002  0.5  1.0000
  O   O80       1.0  0.5165  0.8107  0.5  1.0000
  O   O81       1.0  0.5663  0.0829  0.0701  1.0000
  O   O82       1.0  0.4337  0.9170999999999999  0.0701  1.0000
  O   O83       1.0  0.9170999999999999  0.5663  0.0701  1.0000
  O   O84       1.0  0.0829  0.4337  0.0701  1.0000
  O   O85       1.0  0.06630000000000003  0.5829  0.5701  1.0000
  O   O86       1.0  0.9337000000000001  0.4171  0.5701  1.0000
  O   O87       1.0  0.4171  0.06630000000000003  0.5701  1.0000
  O   O88       1.0  0.5829  0.9337000000000001  0.5701  1.0000
  O   O89       1.0  0.4337  0.9170999999999999  0.9299000000000001  1.0000
  O   O90       1.0  0.5663  0.0829  0.9299000000000001  1.0000
  O   O91       1.0  0.0829  0.4337  0.9299000000000001  1.0000
  O   O92       1.0  0.9170999999999999  0.5663  0.9299000000000001  1.0000
  O   O93       1.0  0.9337000000000001  0.4171  0.42990000000000006  1.0000
  O   O94       1.0  0.06630000000000003  0.5829  0.42990000000000006  1.0000
  O   O95       1.0  0.5829  0.9337000000000001  0.42990000000000006  1.0000
  O   O96       1.0  0.4171  0.06630000000000003  0.42990000000000006  1.0000
  O   O97       1.0  0.5644  0.0829  0.20810000000000003  1.0000
  O   O98       1.0  0.4356  0.9170999999999999  0.20810000000000003  1.0000
  O   O99       1.0  0.9170999999999999  0.5644  0.20810000000000003  1.0000
  O   O100      1.0  0.0829  0.4356  0.20810000000000003  1.0000
  O   O101      1.0  0.06440000000000001  0.5829  0.7081000000000001  1.0000
  O   O102      1.0  0.9356  0.4171  0.7081000000000001  1.0000
  O   O103      1.0  0.4171  0.06440000000000001  0.7081000000000001  1.0000
  O   O104      1.0  0.5829  0.9356  0.7081000000000001  1.0000
  O   O105      1.0  0.4356  0.9170999999999999  0.7919  1.0000
  O   O106      1.0  0.5644  0.0829  0.7919  1.0000
  O   O107      1.0  0.0829  0.4356  0.7919  1.0000
  O   O108      1.0  0.9170999999999999  0.5644  0.7919  1.0000
  O   O109      1.0  0.9356  0.4171  0.29189999999999994  1.0000
  O   O110      1.0  0.06440000000000001  0.5829  0.29189999999999994  1.0000
  O   O111      1.0  0.5829  0.9356  0.29189999999999994  1.0000
  O   O112      1.0  0.4171  0.06440000000000001  0.29189999999999994  1.0000
  O   O113      1.0  0.8459  0.061799999999999994  0.1383  1.0000
  O   O114      1.0  0.15410000000000001  0.9382000000000001  0.1383  1.0000
  O   O115      1.0  0.9382000000000001  0.8459  0.1383  1.0000
  O   O116      1.0  0.061799999999999994  0.15410000000000001  0.1383  1.0000
  O   O117      1.0  0.3458999999999999  0.5618  0.6383  1.0000
  O   O118      1.0  0.6541  0.43820000000000003  0.6383  1.0000
  O   O119      1.0  0.43820000000000003  0.3458999999999999  0.6383  1.0000
  O   O120      1.0  0.5618  0.6541  0.6383  1.0000
  O   O121      1.0  0.15410000000000001  0.9382000000000001  0.8617  1.0000
  O   O122      1.0  0.8459  0.061799999999999994  0.8617  1.0000
  O   O123      1.0  0.061799999999999994  0.15410000000000001  0.8617  1.0000
  O   O124      1.0  0.9382000000000001  0.8459  0.8617  1.0000
  O   O125      1.0  0.6541  0.43820000000000003  0.3617  1.0000
  O   O126      1.0  0.3458999999999999  0.5618  0.3617  1.0000
  O   O127      1.0  0.5618  0.6541  0.3617  1.0000
  O   O128      1.0  0.43820000000000003  0.3458999999999999  0.3617  1.0000
  O   O129      1.0  0.6919999999999998  0.0127  0.1441  1.0000
  O   O130      1.0  0.30800000000000016  0.9873000000000001  0.1441  1.0000
  O   O131      1.0  0.9873000000000001  0.6919999999999998  0.1441  1.0000
  O   O132      1.0  0.0127  0.30800000000000016  0.1441  1.0000
  O   O133      1.0  0.19199999999999973  0.5127  0.6441  1.0000
  O   O134      1.0  0.8080000000000002  0.4873  0.6441  1.0000
  O   O135      1.0  0.4873  0.19199999999999973  0.6441  1.0000
  O   O136      1.0  0.5127  0.8080000000000002  0.6441  1.0000
  O   O137      1.0  0.30800000000000016  0.9873000000000001  0.8559  1.0000
  O   O138      1.0  0.6919999999999998  0.0127  0.8559  1.0000
  O   O139      1.0  0.0127  0.30800000000000016  0.8559  1.0000
  O   O140      1.0  0.9873000000000001  0.6919999999999998  0.8559  1.0000
  O   O141      1.0  0.8080000000000002  0.4873  0.3559  1.0000
  O   O142      1.0  0.19199999999999973  0.5127  0.3559  1.0000
  O   O143      1.0  0.5127  0.8080000000000002  0.3559  1.0000
  O   O144      1.0  0.4873  0.19199999999999973  0.3559  1.0000
  O   O145      1.0  0.8283  0.0657  0.0  1.0000
  O   O146      1.0  0.17169999999999996  0.9343000000000001  0.0  1.0000
  O   O147      1.0  0.9343000000000001  0.8283  0.0  1.0000
  O   O148      1.0  0.0657  0.17169999999999996  0.0  1.0000
  O   O149      1.0  0.32830000000000004  0.5657  0.5  1.0000
  O   O150      1.0  0.6717  0.43429999999999996  0.5  1.0000
  O   O151      1.0  0.43429999999999996  0.32830000000000004  0.5  1.0000
  O   O152      1.0  0.5657  0.6717  0.5  1.0000
  O   O153      1.0  0.6233  0.2148  0.1447  1.0000
  O   O154      1.0  0.37670000000000003  0.7852  0.1447  1.0000
  O   O155      1.0  0.7852  0.6233  0.1447  1.0000
  O   O156      1.0  0.2148  0.37670000000000003  0.1447  1.0000
  O   O157      1.0  0.12329999999999997  0.7148  0.6447  1.0000
  O   O158      1.0  0.8767  0.2852  0.6447  1.0000
  O   O159      1.0  0.2852  0.12329999999999997  0.6447  1.0000
  O   O160      1.0  0.7148  0.8767  0.6447  1.0000
  O   O161      1.0  0.37670000000000003  0.7852  0.8553  1.0000
  O   O162      1.0  0.6233  0.2148  0.8553  1.0000
  O   O163      1.0  0.2148  0.37670000000000003  0.8553  1.0000
  O   O164      1.0  0.7852  0.6233  0.8553  1.0000
  O   O165      1.0  0.8767  0.2852  0.3553  1.0000
  O   O166      1.0  0.12329999999999997  0.7148  0.3553  1.0000
  O   O167      1.0  0.7148  0.8767  0.3553  1.0000
  O   O168      1.0  0.2852  0.12329999999999997  0.3553  1.0000
  O   O169      1.0  0.6245  0.21099999999999997  0.0  1.0000
  O   O170      1.0  0.37549999999999994  0.789  0.0  1.0000
  O   O171      1.0  0.789  0.6245  0.0  1.0000
  O   O172      1.0  0.21099999999999997  0.37549999999999994  0.0  1.0000
  O   O173      1.0  0.12450000000000004  0.711  0.5  1.0000
  O   O174      1.0  0.8754999999999998  0.28900000000000003  0.5  1.0000
  O   O175      1.0  0.28900000000000003  0.12450000000000004  0.5  1.0000
  O   O176      1.0  0.711  0.8754999999999998  0.5  1.0000
  O   O177      1.0  0.7132  0.1329  0.08103  1.0000
  O   O178      1.0  0.28680000000000005  0.8671  0.08103  1.0000
  O   O179      1.0  0.8671  0.7132  0.08103  1.0000
  O   O180      1.0  0.1329  0.28680000000000005  0.08103  1.0000
  O   O181      1.0  0.21320000000000006  0.6329  0.58103  1.0000
  O   O182      1.0  0.7868  0.3671  0.58103  1.0000
  O   O183      1.0  0.3671  0.21320000000000006  0.58103  1.0000
  O   O184      1.0  0.6329  0.7868  0.58103  1.0000
  O   O185      1.0  0.28680000000000005  0.8671  0.91897  1.0000
  O   O186      1.0  0.7132  0.1329  0.91897  1.0000
  O   O187      1.0  0.1329  0.28680000000000005  0.91897  1.0000
  O   O188      1.0  0.8671  0.7132  0.91897  1.0000
  O   O189      1.0  0.7868  0.3671  0.41897000000000006  1.0000
  O   O190      1.0  0.21320000000000006  0.6329  0.41897000000000006  1.0000
  O   O191      1.0  0.6329  0.7868  0.41897000000000006  1.0000
  O   O192      1.0  0.3671  0.21320000000000006  0.41897000000000006  1.0000
  N   N1        1.0  0.0  0.0  0.0951  1.0000
  N   N2        1.0  0.5  0.5  0.5951  1.0000
  N   N3        1.0  0.0  0.0  0.9049  1.0000
  N   N4        1.0  0.5  0.5  0.4049  1.0000
