data_image0
_chemical_formula_structural       W3O9
_chemical_formula_sum              "W3 O9"
_cell_length_a       7.298
_cell_length_b       7.298
_cell_length_c       3.899
_cell_angle_alpha    90.0
_cell_angle_beta     90.0
_cell_angle_gamma    119.99999999999999

_space_group_name_H-M_alt    "P 1"
_space_group_IT_number       1

loop_
  _space_group_symop_operation_xyz
  'x, y, z'

loop_
  _atom_site_type_symbol
  _atom_site_label
  _atom_site_symmetry_multiplicity
  _atom_site_fract_x
  _atom_site_fract_y
  _atom_site_fract_z
  _atom_site_occupancy
  W   W1        1.0  0.4999999999999999  0.0  0.0  1.0000
  W   W2        1.0  0.0  0.4999999999999999  0.0  1.0000
  W   W3        1.0  0.49999999999999994  0.49999999999999994  0.0  1.0000
  O   O1        1.0  0.4999999999999999  0.0  0.4999999999999999  1.0000
  O   O2        1.0  0.0  0.4999999999999999  0.4999999999999999  1.0000
  O   O3        1.0  0.49999999999999994  0.49999999999999994  0.4999999999999999  1.0000
  O   O4        1.0  0.2119999999999999  0.4239999999999999  0.0  1.0000
  O   O5        1.0  0.5759999999999998  0.7879999999999999  0.0  1.0000
  O   O6        1.0  0.2119999999999999  0.7879999999999999  0.0  1.0000
  O   O7        1.0  0.4239999999999999  0.21199999999999994  0.0  1.0000
  O   O8        1.0  0.788  0.5760000000000001  0.0  1.0000
  O   O9        1.0  0.788  0.21199999999999997  0.0  1.0000
