data_image0
_chemical_formula_structural       O4H4O16H4O12P8N4H16N4H16N4H16N4H16
_chemical_formula_sum              "O32 H72 P8 N16"
_cell_length_a       11.2868
_cell_length_b       15.3466
_cell_length_c       6.418940000000001
_cell_angle_alpha    90.0
_cell_angle_beta     90.795
_cell_angle_gamma    90.0

_space_group_name_H-M_alt    "P 1"
_space_group_IT_number       1

loop_
  _space_group_symop_operation_xyz
  'x, y, z'

loop_
  _atom_site_type_symbol
  _atom_site_label
  _atom_site_symmetry_multiplicity
  _atom_site_fract_x
  _atom_site_fract_y
  _atom_site_fract_z
  _atom_site_occupancy
  O   O1        1.0  0.12341000000000003  0.48226999999999987  0.6812  1.0000
  O   O2        1.0  0.87659  0.9822699999999999  0.8188  1.0000
  O   O3        1.0  0.87659  0.51773  0.31880000000000003  1.0000
  O   O4        1.0  0.12341000000000003  0.01773000000000008  0.18120000000000003  1.0000
  H   H1        1.0  0.18100000000000002  0.502  0.635  1.0000
  H   H2        1.0  0.819  0.0020000000000000018  0.865  1.0000
  H   H3        1.0  0.819  0.49799999999999994  0.36500000000000005  1.0000
  H   H4        1.0  0.18100000000000002  0.9979999999999999  0.13500000000000004  1.0000
  O   O5        1.0  0.25104  0.34866  0.7264000000000002  1.0000
  O   O6        1.0  0.7489600000000002  0.84866  0.7735999999999998  1.0000
  O   O7        1.0  0.7489600000000002  0.65134  0.27359999999999984  1.0000
  O   O8        1.0  0.25104  0.15133999999999997  0.22640000000000018  1.0000
  O   O9        1.0  0.1392  0.40992  0.031900000000000046  1.0000
  O   O10       1.0  0.8608000000000001  0.90992  0.4681  1.0000
  O   O11       1.0  0.8608000000000001  0.5900799999999999  0.9681000000000001  1.0000
  O   O12       1.0  0.1392  0.09008  0.5319  1.0000
  O   O13       1.0  0.02645  0.3404199999999999  0.7334  1.0000
  O   O14       1.0  0.9735500000000001  0.8404199999999998  0.7666  1.0000
  O   O15       1.0  0.9735500000000001  0.6595799999999999  0.26659999999999995  1.0000
  O   O16       1.0  0.02645  0.15958000000000006  0.23340000000000008  1.0000
  O   O17       1.0  0.58134  0.2928899999999999  0.4731  1.0000
  O   O18       1.0  0.41866000000000003  0.7928899999999999  0.02689999999999998  1.0000
  O   O19       1.0  0.41866000000000003  0.7071100000000001  0.5268999999999999  1.0000
  O   O20       1.0  0.58134  0.20711000000000007  0.9731000000000002  1.0000
  H   H5        1.0  0.6319999999999999  0.259  0.5290000000000001  1.0000
  H   H6        1.0  0.36800000000000005  0.759  0.9709999999999999  1.0000
  H   H7        1.0  0.36800000000000005  0.741  0.4709999999999999  1.0000
  H   H8        1.0  0.6319999999999999  0.24099999999999996  0.029000000000000137  1.0000
  O   O21       1.0  0.5236700000000001  0.4032599999999999  0.2142  1.0000
  O   O22       1.0  0.47633000000000003  0.9032599999999998  0.28580000000000005  1.0000
  O   O23       1.0  0.47633000000000003  0.5967399999999999  0.7858000000000002  1.0000
  O   O24       1.0  0.5236700000000001  0.09674000000000005  0.7142000000000001  1.0000
  O   O25       1.0  0.6975300000000001  0.43252  0.45490000000000014  1.0000
  O   O26       1.0  0.30247  0.9325199999999999  0.045099999999999925  1.0000
  O   O27       1.0  0.30247  0.56748  0.5450999999999999  1.0000
  O   O28       1.0  0.6975300000000001  0.06747999999999998  0.9549000000000001  1.0000
  O   O29       1.0  0.7173  0.32102  0.1683  1.0000
  O   O30       1.0  0.28270000000000006  0.82102  0.33170000000000005  1.0000
  O   O31       1.0  0.2827  0.6789799999999998  0.8317  1.0000
  O   O32       1.0  0.7173  0.17897999999999994  0.6683  1.0000
  P   P1        1.0  0.13662  0.3919499999999999  0.7980600000000001  1.0000
  P   P2        1.0  0.86338  0.89195  0.7019399999999999  1.0000
  P   P3        1.0  0.86338  0.60805  0.20193999999999993  1.0000
  P   P4        1.0  0.13662  0.10805000000000003  0.29806  1.0000
  P   P5        1.0  0.6335500000000002  0.36514999999999986  0.3210500000000001  1.0000
  P   P6        1.0  0.36645  0.8651499999999999  0.17894999999999997  1.0000
  P   P7        1.0  0.36645  0.6348500000000001  0.67895  1.0000
  P   P8        1.0  0.6335500000000002  0.13485000000000005  0.8210500000000002  1.0000
  N   N1        1.0  0.03108  0.6686399999999998  0.703  1.0000
  N   N2        1.0  0.96892  0.1686399999999999  0.797  1.0000
  N   N3        1.0  0.96892  0.3313600000000001  0.2970000000000001  1.0000
  N   N4        1.0  0.03108  0.83136  0.20299999999999987  1.0000
  H   H9        1.0  0.009  0.7218999999999998  0.72  1.0000
  H   H10       1.0  0.991  0.22189999999999976  0.78  1.0000
  H   H11       1.0  0.991  0.27810000000000007  0.28  1.0000
  H   H12       1.0  0.009  0.7781  0.22  1.0000
  H   H13       1.0  0.1058  0.6669999999999999  0.7300000000000001  1.0000
  H   H14       1.0  0.8942000000000001  0.1669999999999998  0.7699999999999999  1.0000
  H   H15       1.0  0.8942000000000001  0.3330000000000001  0.2699999999999999  1.0000
  H   H16       1.0  0.1058  0.833  0.22999999999999998  1.0000
  H   H17       1.0  0.9830000000000001  0.638  0.78  1.0000
  H   H18       1.0  0.017000000000000005  0.13799999999999987  0.72  1.0000
  H   H19       1.0  0.017000000000000005  0.362  0.22  1.0000
  H   H20       1.0  0.9830000000000001  0.8619999999999999  0.28  1.0000
  H   H21       1.0  0.018  0.658  0.57  1.0000
  H   H22       1.0  0.982  0.15799999999999992  0.93  1.0000
  H   H23       1.0  0.982  0.3419999999999999  0.4300000000000001  1.0000
  H   H24       1.0  0.018  0.842  0.06999999999999985  1.0000
  N   N5        1.0  0.47645  0.41254999999999986  0.7925  1.0000
  N   N6        1.0  0.52355  0.91255  0.7075  1.0000
  N   N7        1.0  0.52355  0.58745  0.20750000000000005  1.0000
  N   N8        1.0  0.47645  0.08745000000000007  0.2925  1.0000
  H   H25       1.0  0.5  0.4019999999999999  0.9200000000000003  1.0000
  H   H26       1.0  0.5  0.9019999999999999  0.5799999999999998  1.0000
  H   H27       1.0  0.5  0.5980000000000001  0.07999999999999986  1.0000
  H   H28       1.0  0.5  0.09800000000000003  0.4200000000000002  1.0000
  H   H29       1.0  0.523  0.3819999999999999  0.711  1.0000
  H   H30       1.0  0.477  0.8819999999999998  0.789  1.0000
  H   H31       1.0  0.477  0.618  0.28900000000000003  1.0000
  H   H32       1.0  0.523  0.11800000000000004  0.21099999999999985  1.0000
  H   H33       1.0  0.4790000000000001  0.4675  0.7600000000000001  1.0000
  H   H34       1.0  0.5209999999999999  0.9674999999999999  0.7399999999999999  1.0000
  H   H35       1.0  0.5209999999999999  0.5324999999999999  0.23999999999999988  1.0000
  H   H36       1.0  0.4790000000000001  0.03249999999999997  0.2600000000000003  1.0000
  H   H37       1.0  0.4031  0.395  0.7700000000000002  1.0000
  H   H38       1.0  0.5969000000000001  0.8949999999999999  0.73  1.0000
  H   H39       1.0  0.5969000000000001  0.605  0.2299999999999999  1.0000
  H   H40       1.0  0.4031  0.10499999999999998  0.2700000000000001  1.0000
  N   N9        1.0  0.29995000000000005  0.3290499999999999  0.29910000000000014  1.0000
  N   N10       1.0  0.7000500000000001  0.82905  0.20089999999999988  1.0000
  N   N11       1.0  0.7000500000000001  0.67095  0.7009  1.0000
  N   N12       1.0  0.29995000000000005  0.17095000000000002  0.7991000000000003  1.0000
  H   H41       1.0  0.252  0.351  0.2070000000000003  1.0000
  H   H42       1.0  0.7480000000000001  0.8509999999999999  0.29299999999999976  1.0000
  H   H43       1.0  0.7480000000000001  0.6489999999999999  0.7929999999999998  1.0000
  H   H44       1.0  0.252  0.14900000000000002  0.7070000000000004  1.0000
  H   H45       1.0  0.285  0.3389999999999999  0.4280000000000002  1.0000
  H   H46       1.0  0.7150000000000001  0.8389999999999999  0.07199999999999984  1.0000
  H   H47       1.0  0.7150000000000001  0.6609999999999999  0.5719999999999998  1.0000
  H   H48       1.0  0.285  0.16100000000000003  0.9280000000000003  1.0000
  H   H49       1.0  0.3748  0.34499999999999986  0.278  1.0000
  H   H50       1.0  0.6252  0.8449999999999999  0.222  1.0000
  H   H51       1.0  0.6252  0.6549999999999999  0.7220000000000001  1.0000
  H   H52       1.0  0.3748  0.15500000000000005  0.7780000000000001  1.0000
  H   H53       1.0  0.288  0.2742  0.28200000000000025  1.0000
  H   H54       1.0  0.7120000000000001  0.7742  0.21799999999999978  1.0000
  H   H55       1.0  0.7120000000000001  0.7257999999999999  0.7179999999999997  1.0000
  H   H56       1.0  0.288  0.22579999999999997  0.7820000000000003  1.0000
  N   N13       1.0  0.81507  0.42048999999999986  0.8356  1.0000
  N   N14       1.0  0.18493  0.9204899999999999  0.6644  1.0000
  N   N15       1.0  0.18493  0.5795100000000001  0.16440000000000002  1.0000
  N   N16       1.0  0.81507  0.07951000000000007  0.3355999999999999  1.0000
  H   H57       1.0  0.773  0.425  0.72  1.0000
  H   H58       1.0  0.227  0.9249999999999999  0.78  1.0000
  H   H59       1.0  0.227  0.5749999999999998  0.28  1.0000
  H   H60       1.0  0.773  0.07500000000000001  0.22  1.0000
  H   H61       1.0  0.779  0.394  0.933  1.0000
  H   H62       1.0  0.221  0.8939999999999999  0.5670000000000001  1.0000
  H   H63       1.0  0.221  0.6059999999999999  0.06699999999999995  1.0000
  H   H64       1.0  0.779  0.10599999999999998  0.43300000000000005  1.0000
  H   H65       1.0  0.8310000000000001  0.4726  0.8770000000000002  1.0000
  H   H66       1.0  0.169  0.9725999999999999  0.6229999999999999  1.0000
  H   H67       1.0  0.169  0.5273999999999999  0.1229999999999999  1.0000
  H   H68       1.0  0.8310000000000001  0.027399999999999976  0.3770000000000002  1.0000
  H   H69       1.0  0.8868  0.398  0.814  1.0000
  H   H70       1.0  0.1132  0.8979999999999999  0.686  1.0000
  H   H71       1.0  0.1132  0.602  0.18600000000000005  1.0000
  H   H72       1.0  0.8868  0.10199999999999997  0.31400000000000006  1.0000
