data_image0
_chemical_formula_structural       Pd4Cs8I24
_chemical_formula_sum              "Pd4 Cs8 I24"
_cell_length_a       11.332
_cell_length_b       11.332
_cell_length_c       11.332
_cell_angle_alpha    90.0
_cell_angle_beta     90.0
_cell_angle_gamma    90.0

_space_group_name_H-M_alt    "P 1"
_space_group_IT_number       1

loop_
  _space_group_symop_operation_xyz
  'x, y, z'

loop_
  _atom_site_type_symbol
  _atom_site_label
  _atom_site_symmetry_multiplicity
  _atom_site_fract_x
  _atom_site_fract_y
  _atom_site_fract_z
  _atom_site_occupancy
  Pd  Pd1       1.0  0.0  0.0  0.0  1.0000
  Pd  Pd2       1.0  0.0  0.5  0.5  1.0000
  Pd  Pd3       1.0  0.5  0.0  0.5  1.0000
  Pd  Pd4       1.0  0.5  0.5  0.0  1.0000
  Cs  Cs1       1.0  0.25  0.25  0.25  1.0000
  Cs  Cs2       1.0  0.75  0.75  0.25  1.0000
  Cs  Cs3       1.0  0.75  0.25  0.75  1.0000
  Cs  Cs4       1.0  0.25  0.75  0.75  1.0000
  Cs  Cs5       1.0  0.25  0.25  0.75  1.0000
  Cs  Cs6       1.0  0.75  0.75  0.75  1.0000
  Cs  Cs7       1.0  0.25  0.75  0.25  1.0000
  Cs  Cs8       1.0  0.75  0.25  0.25  1.0000
  I   I1        1.0  0.23799000000000003  0.0  0.0  1.0000
  I   I2        1.0  0.76201  0.0  0.0  1.0000
  I   I3        1.0  0.0  0.23799000000000003  0.0  1.0000
  I   I4        1.0  0.0  0.76201  0.0  1.0000
  I   I5        1.0  0.0  0.0  0.23799000000000003  1.0000
  I   I6        1.0  0.0  0.0  0.76201  1.0000
  I   I7        1.0  0.23799000000000003  0.5  0.5  1.0000
  I   I8        1.0  0.76201  0.5  0.5  1.0000
  I   I9        1.0  0.0  0.73799  0.5  1.0000
  I   I10       1.0  0.0  0.26200999999999997  0.5  1.0000
  I   I11       1.0  0.0  0.5  0.73799  1.0000
  I   I12       1.0  0.0  0.5  0.26200999999999997  1.0000
  I   I13       1.0  0.73799  0.0  0.5  1.0000
  I   I14       1.0  0.26200999999999997  0.0  0.5  1.0000
  I   I15       1.0  0.5  0.23799000000000003  0.5  1.0000
  I   I16       1.0  0.5  0.76201  0.5  1.0000
  I   I17       1.0  0.5  0.0  0.73799  1.0000
  I   I18       1.0  0.5  0.0  0.26200999999999997  1.0000
  I   I19       1.0  0.73799  0.5  0.0  1.0000
  I   I20       1.0  0.26200999999999997  0.5  0.0  1.0000
  I   I21       1.0  0.5  0.73799  0.0  1.0000
  I   I22       1.0  0.5  0.26200999999999997  0.0  1.0000
  I   I23       1.0  0.5  0.5  0.23799000000000003  1.0000
  I   I24       1.0  0.5  0.5  0.76201  1.0000
