data_image0
_chemical_formula_structural       La12Ru12O44
_chemical_formula_sum              "La12 Ru12 O44"
_cell_length_a       9.466
_cell_length_b       9.466
_cell_length_c       9.466
_cell_angle_alpha    90.0
_cell_angle_beta     90.0
_cell_angle_gamma    90.0

_space_group_name_H-M_alt    "P 1"
_space_group_IT_number       1

loop_
  _space_group_symop_operation_xyz
  'x, y, z'

loop_
  _atom_site_type_symbol
  _atom_site_label
  _atom_site_symmetry_multiplicity
  _atom_site_fract_x
  _atom_site_fract_y
  _atom_site_fract_z
  _atom_site_occupancy
  La  La1       1.0  0.0  0.0  0.0  1.0000
  La  La2       1.0  0.0  0.5  0.5  1.0000
  La  La3       1.0  0.5  0.0  0.5  1.0000
  La  La4       1.0  0.5  0.5  0.0  1.0000
  La  La5       1.0  0.38707  0.38707  0.38707  1.0000
  La  La6       1.0  0.38707  0.11292999999999996  0.11292999999999996  1.0000
  La  La7       1.0  0.11292999999999996  0.38707  0.11292999999999996  1.0000
  La  La8       1.0  0.11292999999999996  0.11292999999999996  0.38707  1.0000
  La  La9       1.0  0.61293  0.61293  0.61293  1.0000
  La  La10      1.0  0.61293  0.8870699999999999  0.8870699999999999  1.0000
  La  La11      1.0  0.8870699999999999  0.61293  0.8870699999999999  1.0000
  La  La12      1.0  0.8870699999999999  0.8870699999999999  0.61293  1.0000
  Ru  Ru1       1.0  0.40831  0.75  0.25  1.0000
  Ru  Ru2       1.0  0.09169  0.75  0.25  1.0000
  Ru  Ru3       1.0  0.75  0.25  0.40831  1.0000
  Ru  Ru4       1.0  0.75  0.25  0.09169  1.0000
  Ru  Ru5       1.0  0.25  0.40831  0.75  1.0000
  Ru  Ru6       1.0  0.25  0.09169  0.75  1.0000
  Ru  Ru7       1.0  0.59169  0.25  0.75  1.0000
  Ru  Ru8       1.0  0.9083100000000001  0.25  0.75  1.0000
  Ru  Ru9       1.0  0.25  0.75  0.59169  1.0000
  Ru  Ru10      1.0  0.25  0.75  0.9083100000000001  1.0000
  Ru  Ru11      1.0  0.75  0.59169  0.25  1.0000
  Ru  Ru12      1.0  0.75  0.9083100000000001  0.25  1.0000
  O   O1        1.0  0.61933  0.25  0.25  1.0000
  O   O2        1.0  0.88067  0.25  0.25  1.0000
  O   O3        1.0  0.25  0.25  0.61933  1.0000
  O   O4        1.0  0.25  0.25  0.88067  1.0000
  O   O5        1.0  0.25  0.61933  0.25  1.0000
  O   O6        1.0  0.25  0.88067  0.25  1.0000
  O   O7        1.0  0.38066999999999995  0.75  0.75  1.0000
  O   O8        1.0  0.11933000000000014  0.75  0.75  1.0000
  O   O9        1.0  0.75  0.75  0.38066999999999995  1.0000
  O   O10       1.0  0.75  0.75  0.11933000000000014  1.0000
  O   O11       1.0  0.75  0.38066999999999995  0.75  1.0000
  O   O12       1.0  0.75  0.11933000000000014  0.75  1.0000
  O   O13       1.0  0.1443  0.1443  0.1443  1.0000
  O   O14       1.0  0.1443  0.3557  0.3557  1.0000
  O   O15       1.0  0.3557  0.1443  0.3557  1.0000
  O   O16       1.0  0.3557  0.3557  0.1443  1.0000
  O   O17       1.0  0.8557  0.8557  0.8557  1.0000
  O   O18       1.0  0.8557  0.6443  0.6443  1.0000
  O   O19       1.0  0.6443  0.8557  0.6443  1.0000
  O   O20       1.0  0.6443  0.6443  0.8557  1.0000
  O   O21       1.0  0.58466  0.25383  0.53985  1.0000
  O   O22       1.0  0.58466  0.24616999999999997  0.96015  1.0000
  O   O23       1.0  0.9153400000000002  0.25383  0.96015  1.0000
  O   O24       1.0  0.9153400000000002  0.24616999999999997  0.53985  1.0000
  O   O25       1.0  0.25383  0.53985  0.58466  1.0000
  O   O26       1.0  0.24616999999999997  0.96015  0.58466  1.0000
  O   O27       1.0  0.25383  0.96015  0.9153400000000002  1.0000
  O   O28       1.0  0.24616999999999997  0.53985  0.9153400000000002  1.0000
  O   O29       1.0  0.53985  0.58466  0.25383  1.0000
  O   O30       1.0  0.96015  0.58466  0.24616999999999997  1.0000
  O   O31       1.0  0.96015  0.9153400000000002  0.25383  1.0000
  O   O32       1.0  0.53985  0.9153400000000002  0.24616999999999997  1.0000
  O   O33       1.0  0.41534000000000004  0.74617  0.46014999999999995  1.0000
  O   O34       1.0  0.41534000000000004  0.75383  0.03984999999999994  1.0000
  O   O35       1.0  0.08465999999999996  0.74617  0.03984999999999994  1.0000
  O   O36       1.0  0.08465999999999996  0.75383  0.46014999999999995  1.0000
  O   O37       1.0  0.74617  0.46014999999999995  0.41534000000000004  1.0000
  O   O38       1.0  0.75383  0.03984999999999994  0.41534000000000004  1.0000
  O   O39       1.0  0.74617  0.03984999999999994  0.08465999999999996  1.0000
  O   O40       1.0  0.75383  0.46014999999999995  0.08465999999999996  1.0000
  O   O41       1.0  0.46014999999999995  0.41534000000000004  0.74617  1.0000
  O   O42       1.0  0.03984999999999994  0.41534000000000004  0.75383  1.0000
  O   O43       1.0  0.03984999999999994  0.08465999999999996  0.74617  1.0000
  O   O44       1.0  0.46014999999999995  0.08465999999999996  0.75383  1.0000
