data_image0
_chemical_formula_structural       Ag4Sb4O24
_chemical_formula_sum              "Ag4 Sb4 O24"
_cell_length_a       8.12
_cell_length_b       8.12
_cell_length_c       7.91
_cell_angle_alpha    90.0
_cell_angle_beta     90.0
_cell_angle_gamma    90.0

_space_group_name_H-M_alt    "P 1"
_space_group_IT_number       1

loop_
  _space_group_symop_operation_xyz
  'x, y, z'

loop_
  _atom_site_type_symbol
  _atom_site_label
  _atom_site_symmetry_multiplicity
  _atom_site_fract_x
  _atom_site_fract_y
  _atom_site_fract_z
  _atom_site_occupancy
  Ag  Ag1       1.0  0.0  0.0  0.4999999999999999  1.0000
  Ag  Ag2       1.0  0.5  0.5  0.4999999999999999  1.0000
  Ag  Ag3       1.0  0.0  0.5  0.0  1.0000
  Ag  Ag4       1.0  0.5  0.0  0.0  1.0000
  Sb  Sb1       1.0  0.0  0.0  0.0  1.0000
  Sb  Sb2       1.0  0.5  0.5  0.0  1.0000
  Sb  Sb3       1.0  0.0  0.5  0.49999999999999994  1.0000
  Sb  Sb4       1.0  0.5  0.0  0.49999999999999994  1.0000
  O   O1        1.0  0.28  0.025  0.34  1.0000
  O   O2        1.0  0.21999999999999997  0.475  0.34  1.0000
  O   O3        1.0  0.975  0.78  0.8400000000000001  1.0000
  O   O4        1.0  0.525  0.72  0.8400000000000001  1.0000
  O   O5        1.0  0.72  0.975  0.6599999999999998  1.0000
  O   O6        1.0  0.78  0.525  0.6599999999999998  1.0000
  O   O7        1.0  0.025  0.21999999999999997  0.15999999999999998  1.0000
  O   O8        1.0  0.475  0.28  0.15999999999999998  1.0000
  O   O9        1.0  0.025  0.28  0.34  1.0000
  O   O10       1.0  0.475  0.21999999999999997  0.34  1.0000
  O   O11       1.0  0.72  0.525  0.8400000000000001  1.0000
  O   O12       1.0  0.78  0.975  0.8400000000000001  1.0000
  O   O13       1.0  0.975  0.72  0.6599999999999998  1.0000
  O   O14       1.0  0.525  0.78  0.6599999999999998  1.0000
  O   O15       1.0  0.28  0.475  0.15999999999999998  1.0000
  O   O16       1.0  0.21999999999999997  0.025  0.15999999999999998  1.0000
  O   O17       1.0  0.175  0.175  0.024999999999999994  1.0000
  O   O18       1.0  0.325  0.325  0.024999999999999994  1.0000
  O   O19       1.0  0.825  0.675  0.5249999999999999  1.0000
  O   O20       1.0  0.675  0.825  0.5249999999999999  1.0000
  O   O21       1.0  0.825  0.825  0.9749999999999999  1.0000
  O   O22       1.0  0.675  0.675  0.9749999999999999  1.0000
  O   O23       1.0  0.175  0.325  0.4749999999999999  1.0000
  O   O24       1.0  0.325  0.175  0.4749999999999999  1.0000
