data_image0
_chemical_formula_structural       S96Sn24Cu64
_chemical_formula_sum              "S96 Sn24 Cu64"
_cell_length_a       17.878
_cell_length_b       17.878
_cell_length_c       17.878
_cell_angle_alpha    90.0
_cell_angle_beta     90.0
_cell_angle_gamma    90.0

_space_group_name_H-M_alt    "P 1"
_space_group_IT_number       1

loop_
  _space_group_symop_operation_xyz
  'x, y, z'

loop_
  _atom_site_type_symbol
  _atom_site_label
  _atom_site_symmetry_multiplicity
  _atom_site_fract_x
  _atom_site_fract_y
  _atom_site_fract_z
  _atom_site_occupancy
  S   S1        1.0  0.8884700000000001  0.17501  0.99894  0.5000
  S   S2        1.0  0.11153  0.8249900000000001  0.99894  0.5000
  S   S3        1.0  0.11153  0.17501  0.0010600000000000004  0.5000
  S   S4        1.0  0.8884700000000001  0.8249900000000001  0.0010600000000000004  0.5000
  S   S5        1.0  0.99894  0.8884700000000001  0.17501  0.5000
  S   S6        1.0  0.99894  0.11153  0.8249900000000001  0.5000
  S   S7        1.0  0.0010600000000000004  0.11153  0.17501  0.5000
  S   S8        1.0  0.0010600000000000004  0.8884700000000001  0.8249900000000001  0.5000
  S   S9        1.0  0.17501  0.99894  0.8884700000000001  0.5000
  S   S10       1.0  0.8249900000000001  0.99894  0.11153  0.5000
  S   S11       1.0  0.17501  0.0010600000000000004  0.11153  0.5000
  S   S12       1.0  0.8249900000000001  0.0010600000000000004  0.8884700000000001  0.5000
  S   S13       1.0  0.67501  0.38847  0.49894000000000005  0.5000
  S   S14       1.0  0.32499  0.61153  0.49894000000000005  0.5000
  S   S15       1.0  0.67501  0.61153  0.50106  0.5000
  S   S16       1.0  0.32499  0.38847  0.50106  0.5000
  S   S17       1.0  0.38847  0.49894000000000005  0.67501  0.5000
  S   S18       1.0  0.61153  0.49894000000000005  0.32499  0.5000
  S   S19       1.0  0.61153  0.50106  0.67501  0.5000
  S   S20       1.0  0.38847  0.50106  0.32499  0.5000
  S   S21       1.0  0.49894000000000005  0.67501  0.38847  0.5000
  S   S22       1.0  0.49894000000000005  0.32499  0.61153  0.5000
  S   S23       1.0  0.50106  0.67501  0.61153  0.5000
  S   S24       1.0  0.50106  0.32499  0.38847  0.5000
  S   S25       1.0  0.8884700000000001  0.67501  0.49894000000000005  0.5000
  S   S26       1.0  0.11153  0.32499  0.49894000000000005  0.5000
  S   S27       1.0  0.11153  0.67501  0.50106  0.5000
  S   S28       1.0  0.8884700000000001  0.32499  0.50106  0.5000
  S   S29       1.0  0.99894  0.38847  0.67501  0.5000
  S   S30       1.0  0.99894  0.61153  0.32499  0.5000
  S   S31       1.0  0.0010600000000000004  0.61153  0.67501  0.5000
  S   S32       1.0  0.0010600000000000004  0.38847  0.32499  0.5000
  S   S33       1.0  0.17501  0.49894000000000005  0.38847  0.5000
  S   S34       1.0  0.8249900000000001  0.49894000000000005  0.61153  0.5000
  S   S35       1.0  0.17501  0.50106  0.61153  0.5000
  S   S36       1.0  0.8249900000000001  0.50106  0.38847  0.5000
  S   S37       1.0  0.67501  0.8884700000000001  0.99894  0.5000
  S   S38       1.0  0.32499  0.11153  0.99894  0.5000
  S   S39       1.0  0.67501  0.11153  0.0010600000000000004  0.5000
  S   S40       1.0  0.32499  0.8884700000000001  0.0010600000000000004  0.5000
  S   S41       1.0  0.38847  0.99894  0.17501  0.5000
  S   S42       1.0  0.61153  0.99894  0.8249900000000001  0.5000
  S   S43       1.0  0.61153  0.0010600000000000004  0.17501  0.5000
  S   S44       1.0  0.38847  0.0010600000000000004  0.8249900000000001  0.5000
  S   S45       1.0  0.49894000000000005  0.17501  0.8884700000000001  0.5000
  S   S46       1.0  0.49894000000000005  0.8249900000000001  0.11153  0.5000
  S   S47       1.0  0.50106  0.17501  0.11153  0.5000
  S   S48       1.0  0.50106  0.8249900000000001  0.8884700000000001  0.5000
  S   S49       1.0  0.38847  0.17501  0.49894000000000005  0.5000
  S   S50       1.0  0.61153  0.8249900000000001  0.49894000000000005  0.5000
  S   S51       1.0  0.61153  0.17501  0.50106  0.5000
  S   S52       1.0  0.38847  0.8249900000000001  0.50106  0.5000
  S   S53       1.0  0.49894000000000005  0.8884700000000001  0.67501  0.5000
  S   S54       1.0  0.49894000000000005  0.11153  0.32499  0.5000
  S   S55       1.0  0.50106  0.11153  0.67501  0.5000
  S   S56       1.0  0.50106  0.8884700000000001  0.32499  0.5000
  S   S57       1.0  0.67501  0.99894  0.38847  0.5000
  S   S58       1.0  0.32499  0.99894  0.61153  0.5000
  S   S59       1.0  0.67501  0.0010600000000000004  0.61153  0.5000
  S   S60       1.0  0.32499  0.0010600000000000004  0.38847  0.5000
  S   S61       1.0  0.17501  0.38847  0.99894  0.5000
  S   S62       1.0  0.8249900000000001  0.61153  0.99894  0.5000
  S   S63       1.0  0.17501  0.61153  0.0010600000000000004  0.5000
  S   S64       1.0  0.8249900000000001  0.38847  0.0010600000000000004  0.5000
  S   S65       1.0  0.8884700000000001  0.49894000000000005  0.17501  0.5000
  S   S66       1.0  0.11153  0.49894000000000005  0.8249900000000001  0.5000
  S   S67       1.0  0.11153  0.50106  0.17501  0.5000
  S   S68       1.0  0.8884700000000001  0.50106  0.8249900000000001  0.5000
  S   S69       1.0  0.99894  0.67501  0.8884700000000001  0.5000
  S   S70       1.0  0.99894  0.32499  0.11153  0.5000
  S   S71       1.0  0.0010600000000000004  0.67501  0.11153  0.5000
  S   S72       1.0  0.0010600000000000004  0.32499  0.8884700000000001  0.5000
  S   S73       1.0  0.38847  0.67501  0.99894  0.5000
  S   S74       1.0  0.61153  0.32499  0.99894  0.5000
  S   S75       1.0  0.61153  0.67501  0.0010600000000000004  0.5000
  S   S76       1.0  0.38847  0.32499  0.0010600000000000004  0.5000
  S   S77       1.0  0.49894000000000005  0.38847  0.17501  0.5000
  S   S78       1.0  0.49894000000000005  0.61153  0.8249900000000001  0.5000
  S   S79       1.0  0.50106  0.61153  0.17501  0.5000
  S   S80       1.0  0.50106  0.38847  0.8249900000000001  0.5000
  S   S81       1.0  0.67501  0.49894000000000005  0.8884700000000001  0.5000
  S   S82       1.0  0.32499  0.49894000000000005  0.11153  0.5000
  S   S83       1.0  0.67501  0.50106  0.11153  0.5000
  S   S84       1.0  0.32499  0.50106  0.8884700000000001  0.5000
  S   S85       1.0  0.17501  0.8884700000000001  0.49894000000000005  0.5000
  S   S86       1.0  0.8249900000000001  0.11153  0.49894000000000005  0.5000
  S   S87       1.0  0.17501  0.11153  0.50106  0.5000
  S   S88       1.0  0.8249900000000001  0.8884700000000001  0.50106  0.5000
  S   S89       1.0  0.8884700000000001  0.99894  0.67501  0.5000
  S   S90       1.0  0.11153  0.99894  0.32499  0.5000
  S   S91       1.0  0.11153  0.0010600000000000004  0.67501  0.5000
  S   S92       1.0  0.8884700000000001  0.0010600000000000004  0.32499  0.5000
  S   S93       1.0  0.99894  0.17501  0.38847  0.5000
  S   S94       1.0  0.99894  0.8249900000000001  0.61153  0.5000
  S   S95       1.0  0.0010600000000000004  0.17501  0.61153  0.5000
  S   S96       1.0  0.0010600000000000004  0.8249900000000001  0.38847  0.5000
  Sn  Sn1       1.0  0.0  0.25  0.0  0.5000
  Sn  Sn2       1.0  0.0  0.75  0.0  0.5000
  Sn  Sn3       1.0  0.0  0.0  0.25  0.5000
  Sn  Sn4       1.0  0.0  0.0  0.75  0.5000
  Sn  Sn5       1.0  0.25  0.0  0.0  0.5000
  Sn  Sn6       1.0  0.75  0.0  0.0  0.5000
  Sn  Sn7       1.0  0.75  0.5  0.5  0.5000
  Sn  Sn8       1.0  0.25  0.5  0.5  0.5000
  Sn  Sn9       1.0  0.5  0.5  0.75  0.5000
  Sn  Sn10      1.0  0.5  0.5  0.25  0.5000
  Sn  Sn11      1.0  0.5  0.75  0.5  0.5000
  Sn  Sn12      1.0  0.5  0.25  0.5  0.5000
  Sn  Sn13      1.0  0.0  0.75  0.5  0.5000
  Sn  Sn14      1.0  0.0  0.25  0.5  0.5000
  Sn  Sn15      1.0  0.0  0.5  0.75  0.5000
  Sn  Sn16      1.0  0.0  0.5  0.25  0.5000
  Sn  Sn17      1.0  0.5  0.0  0.25  0.5000
  Sn  Sn18      1.0  0.5  0.0  0.75  0.5000
  Sn  Sn19      1.0  0.5  0.25  0.0  0.5000
  Sn  Sn20      1.0  0.5  0.75  0.0  0.5000
  Sn  Sn21      1.0  0.75  0.0  0.5  0.5000
  Sn  Sn22      1.0  0.25  0.0  0.5  0.5000
  Sn  Sn23      1.0  0.25  0.5  0.0  0.5000
  Sn  Sn24      1.0  0.75  0.5  0.0  0.5000
  Cu  Cu1       1.0  0.9115200000000001  0.08848000000000003  0.08848000000000003  0.5000
  Cu  Cu2       1.0  0.08848000000000003  0.9115200000000001  0.08848000000000003  0.5000
  Cu  Cu3       1.0  0.08848000000000003  0.08848000000000003  0.9115200000000001  0.5000
  Cu  Cu4       1.0  0.9115200000000001  0.9115200000000001  0.9115200000000001  0.5000
  Cu  Cu5       1.0  0.58848  0.41152  0.58848  0.5000
  Cu  Cu6       1.0  0.41152  0.58848  0.58848  0.5000
  Cu  Cu7       1.0  0.58848  0.58848  0.41152  0.5000
  Cu  Cu8       1.0  0.41152  0.41152  0.41152  0.5000
  Cu  Cu9       1.0  0.9115200000000001  0.58848  0.58848  0.5000
  Cu  Cu10      1.0  0.08848000000000003  0.41152  0.58848  0.5000
  Cu  Cu11      1.0  0.08848000000000003  0.58848  0.41152  0.5000
  Cu  Cu12      1.0  0.9115200000000001  0.41152  0.41152  0.5000
  Cu  Cu13      1.0  0.58848  0.9115200000000001  0.08848000000000003  0.5000
  Cu  Cu14      1.0  0.41152  0.08848000000000003  0.08848000000000003  0.5000
  Cu  Cu15      1.0  0.58848  0.08848000000000003  0.9115200000000001  0.5000
  Cu  Cu16      1.0  0.41152  0.9115200000000001  0.9115200000000001  0.5000
  Cu  Cu17      1.0  0.41152  0.08848000000000003  0.58848  0.5000
  Cu  Cu18      1.0  0.58848  0.9115200000000001  0.58848  0.5000
  Cu  Cu19      1.0  0.58848  0.08848000000000003  0.41152  0.5000
  Cu  Cu20      1.0  0.41152  0.9115200000000001  0.41152  0.5000
  Cu  Cu21      1.0  0.08848000000000003  0.41152  0.08848000000000003  0.5000
  Cu  Cu22      1.0  0.9115200000000001  0.58848  0.08848000000000003  0.5000
  Cu  Cu23      1.0  0.08848000000000003  0.58848  0.9115200000000001  0.5000
  Cu  Cu24      1.0  0.9115200000000001  0.41152  0.9115200000000001  0.5000
  Cu  Cu25      1.0  0.41152  0.58848  0.08848000000000003  0.5000
  Cu  Cu26      1.0  0.58848  0.41152  0.08848000000000003  0.5000
  Cu  Cu27      1.0  0.58848  0.58848  0.9115200000000001  0.5000
  Cu  Cu28      1.0  0.41152  0.41152  0.9115200000000001  0.5000
  Cu  Cu29      1.0  0.08848000000000003  0.9115200000000001  0.58848  0.5000
  Cu  Cu30      1.0  0.9115200000000001  0.08848000000000003  0.58848  0.5000
  Cu  Cu31      1.0  0.08848000000000003  0.08848000000000003  0.41152  0.5000
  Cu  Cu32      1.0  0.9115200000000001  0.9115200000000001  0.41152  0.5000
  Cu  Cu33      1.0  0.90978  0.09022000000000002  0.90978  0.5000
  Cu  Cu34      1.0  0.09022000000000002  0.90978  0.90978  0.5000
  Cu  Cu35      1.0  0.09022000000000002  0.09022000000000002  0.09022000000000002  0.5000
  Cu  Cu36      1.0  0.90978  0.90978  0.09022000000000002  0.5000
  Cu  Cu37      1.0  0.5902200000000001  0.40978000000000003  0.40978000000000003  0.5000
  Cu  Cu38      1.0  0.40978000000000003  0.5902200000000001  0.40978000000000003  0.5000
  Cu  Cu39      1.0  0.5902200000000001  0.5902200000000001  0.5902200000000001  0.5000
  Cu  Cu40      1.0  0.40978000000000003  0.40978000000000003  0.5902200000000001  0.5000
  Cu  Cu41      1.0  0.90978  0.5902200000000001  0.40978000000000003  0.5000
  Cu  Cu42      1.0  0.09022000000000002  0.40978000000000003  0.40978000000000003  0.5000
  Cu  Cu43      1.0  0.09022000000000002  0.5902200000000001  0.5902200000000001  0.5000
  Cu  Cu44      1.0  0.90978  0.40978000000000003  0.5902200000000001  0.5000
  Cu  Cu45      1.0  0.5902200000000001  0.90978  0.90978  0.5000
  Cu  Cu46      1.0  0.40978000000000003  0.09022000000000002  0.90978  0.5000
  Cu  Cu47      1.0  0.5902200000000001  0.09022000000000002  0.09022000000000002  0.5000
  Cu  Cu48      1.0  0.40978000000000003  0.90978  0.09022000000000002  0.5000
  Cu  Cu49      1.0  0.40978000000000003  0.09022000000000002  0.40978000000000003  0.5000
  Cu  Cu50      1.0  0.5902200000000001  0.90978  0.40978000000000003  0.5000
  Cu  Cu51      1.0  0.5902200000000001  0.09022000000000002  0.5902200000000001  0.5000
  Cu  Cu52      1.0  0.40978000000000003  0.90978  0.5902200000000001  0.5000
  Cu  Cu53      1.0  0.09022000000000002  0.40978000000000003  0.90978  0.5000
  Cu  Cu54      1.0  0.90978  0.5902200000000001  0.90978  0.5000
  Cu  Cu55      1.0  0.09022000000000002  0.5902200000000001  0.09022000000000002  0.5000
  Cu  Cu56      1.0  0.90978  0.40978000000000003  0.09022000000000002  0.5000
  Cu  Cu57      1.0  0.40978000000000003  0.5902200000000001  0.90978  0.5000
  Cu  Cu58      1.0  0.5902200000000001  0.40978000000000003  0.90978  0.5000
  Cu  Cu59      1.0  0.5902200000000001  0.5902200000000001  0.09022000000000002  0.5000
  Cu  Cu60      1.0  0.40978000000000003  0.40978000000000003  0.09022000000000002  0.5000
  Cu  Cu61      1.0  0.09022000000000002  0.90978  0.40978000000000003  0.5000
  Cu  Cu62      1.0  0.90978  0.09022000000000002  0.40978000000000003  0.5000
  Cu  Cu63      1.0  0.09022000000000002  0.09022000000000002  0.5902200000000001  0.5000
  Cu  Cu64      1.0  0.90978  0.90978  0.5902200000000001  0.5000
