data_image0
_chemical_formula_structural       N16Cd52In88S208
_chemical_formula_sum              "N16 Cd52 In88 S208"
_cell_length_a       28.0877
_cell_length_b       28.0877
_cell_length_c       26.7025
_cell_angle_alpha    90.0
_cell_angle_beta     90.0
_cell_angle_gamma    90.0

_space_group_name_H-M_alt    "P 1"
_space_group_IT_number       1

loop_
  _space_group_symop_operation_xyz
  'x, y, z'

loop_
  _atom_site_type_symbol
  _atom_site_label
  _atom_site_symmetry_multiplicity
  _atom_site_fract_x
  _atom_site_fract_y
  _atom_site_fract_z
  _atom_site_occupancy
  N   N1        1.0  0.1648  0.25  0.8547  1.0000
  N   N2        1.0  0.3352  0.75  0.3547  1.0000
  N   N3        1.0  0.0  0.9148  0.10470000000000002  1.0000
  N   N4        1.0  0.5  0.0852  0.6047  1.0000
  N   N5        1.0  0.3352  0.25  0.6453  1.0000
  N   N6        1.0  0.1648  0.75  0.14529999999999998  1.0000
  N   N7        1.0  0.5  0.9148  0.3953  1.0000
  N   N8        1.0  0.0  0.0852  0.8953  1.0000
  N   N9        1.0  0.6648000000000001  0.75  0.3547  1.0000
  N   N10       1.0  0.8351999999999998  0.25  0.8547  1.0000
  N   N11       1.0  0.5  0.4148  0.6047  1.0000
  N   N12       1.0  0.0  0.5851999999999999  0.10470000000000002  1.0000
  N   N13       1.0  0.8351999999999998  0.75  0.14529999999999998  1.0000
  N   N14       1.0  0.6648000000000001  0.25  0.6453  1.0000
  N   N15       1.0  0.0  0.4148  0.8953  1.0000
  N   N16       1.0  0.5  0.5851999999999999  0.3953  1.0000
  Cd  Cd1       1.0  0.5  0.25  0.125  1.0000
  Cd  Cd2       1.0  0.0  0.75  0.6249999999999999  1.0000
  Cd  Cd3       1.0  0.0  0.25  0.375  1.0000
  Cd  Cd4       1.0  0.5  0.75  0.875  1.0000
  Cd  Cd5       1.0  0.42967  0.32012  0.021600000000000064  1.0000
  Cd  Cd6       1.0  0.07033  0.67988  0.5216000000000001  1.0000
  Cd  Cd7       1.0  0.92988  0.17967  0.27160000000000006  1.0000
  Cd  Cd8       1.0  0.5701199999999998  0.82033  0.7716  1.0000
  Cd  Cd9       1.0  0.07033  0.32012  0.47839999999999994  1.0000
  Cd  Cd10      1.0  0.42967  0.67988  0.9783999999999999  1.0000
  Cd  Cd11      1.0  0.5701199999999998  0.17967  0.2283999999999999  1.0000
  Cd  Cd12      1.0  0.92988  0.82033  0.7283999999999999  1.0000
  Cd  Cd13      1.0  0.92967  0.82012  0.5216000000000001  1.0000
  Cd  Cd14      1.0  0.5703299999999999  0.17987999999999998  0.021600000000000064  1.0000
  Cd  Cd15      1.0  0.42987999999999993  0.67967  0.7716  1.0000
  Cd  Cd16      1.0  0.07011999999999996  0.32032999999999995  0.27160000000000006  1.0000
  Cd  Cd17      1.0  0.5703299999999999  0.82012  0.9783999999999999  1.0000
  Cd  Cd18      1.0  0.92967  0.17987999999999998  0.47839999999999994  1.0000
  Cd  Cd19      1.0  0.07011999999999996  0.67967  0.7283999999999999  1.0000
  Cd  Cd20      1.0  0.42987999999999993  0.32032999999999995  0.2283999999999999  1.0000
  Cd  Cd21      1.0  0.5703299999999999  0.67988  0.9783999999999999  1.0000
  Cd  Cd22      1.0  0.92967  0.32012  0.47839999999999994  1.0000
  Cd  Cd23      1.0  0.07011999999999996  0.82033  0.7283999999999999  1.0000
  Cd  Cd24      1.0  0.42987999999999993  0.17967  0.2283999999999999  1.0000
  Cd  Cd25      1.0  0.92967  0.67988  0.5216000000000001  1.0000
  Cd  Cd26      1.0  0.5703299999999999  0.32012  0.021600000000000064  1.0000
  Cd  Cd27      1.0  0.42987999999999993  0.82033  0.7716  1.0000
  Cd  Cd28      1.0  0.07011999999999996  0.17967  0.27160000000000006  1.0000
  Cd  Cd29      1.0  0.07033  0.17987999999999998  0.47839999999999994  1.0000
  Cd  Cd30      1.0  0.42967  0.82012  0.9783999999999999  1.0000
  Cd  Cd31      1.0  0.5701199999999998  0.32032999999999995  0.2283999999999999  1.0000
  Cd  Cd32      1.0  0.92988  0.67967  0.7283999999999999  1.0000
  Cd  Cd33      1.0  0.42967  0.17987999999999998  0.021600000000000064  1.0000
  Cd  Cd34      1.0  0.07033  0.82012  0.5216000000000001  1.0000
  Cd  Cd35      1.0  0.92988  0.32032999999999995  0.27160000000000006  1.0000
  Cd  Cd36      1.0  0.5701199999999998  0.67967  0.7716  1.0000
  Cd  Cd37      1.0  0.35914  0.25  0.12485999999999997  1.0000
  Cd  Cd38      1.0  0.14085999999999999  0.75  0.62486  1.0000
  Cd  Cd39      1.0  0.0  0.10914000000000001  0.37485999999999997  1.0000
  Cd  Cd40      1.0  0.5  0.89086  0.87486  1.0000
  Cd  Cd41      1.0  0.14085999999999999  0.25  0.37514000000000003  1.0000
  Cd  Cd42      1.0  0.35914  0.75  0.87514  1.0000
  Cd  Cd43      1.0  0.5  0.10914000000000001  0.12514000000000003  1.0000
  Cd  Cd44      1.0  0.0  0.89086  0.62514  1.0000
  Cd  Cd45      1.0  0.85914  0.75  0.62486  1.0000
  Cd  Cd46      1.0  0.6408599999999999  0.25  0.12485999999999997  1.0000
  Cd  Cd47      1.0  0.5  0.60914  0.87486  1.0000
  Cd  Cd48      1.0  0.0  0.39085999999999993  0.37485999999999997  1.0000
  Cd  Cd49      1.0  0.6408599999999999  0.75  0.87514  1.0000
  Cd  Cd50      1.0  0.85914  0.25  0.37514000000000003  1.0000
  Cd  Cd51      1.0  0.0  0.60914  0.62514  1.0000
  Cd  Cd52      1.0  0.5  0.39085999999999993  0.12514000000000003  1.0000
  In  In1       1.0  0.5  0.25  0.91438  1.0000
  In  In2       1.0  0.0  0.75  0.41437999999999997  1.0000
  In  In3       1.0  0.0  0.25  0.16437999999999994  1.0000
  In  In4       1.0  0.5  0.75  0.66438  1.0000
  In  In5       1.0  0.0  0.25  0.58562  1.0000
  In  In6       1.0  0.5  0.75  0.08562000000000003  1.0000
  In  In7       1.0  0.5  0.25  0.33562000000000003  1.0000
  In  In8       1.0  0.0  0.75  0.83562  1.0000
  In  In9       1.0  0.36024  0.25  0.9133399999999999  1.0000
  In  In10      1.0  0.13976  0.75  0.4133399999999998  1.0000
  In  In11      1.0  0.0  0.1102400000000001  0.16333999999999982  1.0000
  In  In12      1.0  0.5  0.8897599999999999  0.6633399999999998  1.0000
  In  In13      1.0  0.13976  0.25  0.5866600000000001  1.0000
  In  In14      1.0  0.36024  0.75  0.08666000000000007  1.0000
  In  In15      1.0  0.5  0.1102400000000001  0.33666000000000007  1.0000
  In  In16      1.0  0.0  0.8897599999999999  0.83666  1.0000
  In  In17      1.0  0.8602399999999999  0.75  0.4133399999999998  1.0000
  In  In18      1.0  0.63976  0.25  0.9133399999999999  1.0000
  In  In19      1.0  0.5  0.61024  0.6633399999999998  1.0000
  In  In20      1.0  0.0  0.38976  0.16333999999999982  1.0000
  In  In21      1.0  0.63976  0.75  0.08666000000000007  1.0000
  In  In22      1.0  0.8602399999999999  0.25  0.5866600000000001  1.0000
  In  In23      1.0  0.0  0.61024  0.83666  1.0000
  In  In24      1.0  0.5  0.38976  0.33666000000000007  1.0000
  In  In25      1.0  0.35741  0.39259  0.125  1.0000
  In  In26      1.0  0.14259  0.60741  0.6249999999999999  1.0000
  In  In27      1.0  0.85741  0.10741  0.375  1.0000
  In  In28      1.0  0.64259  0.8925899999999999  0.875  1.0000
  In  In29      1.0  0.14259  0.39259  0.375  1.0000
  In  In30      1.0  0.35741  0.60741  0.875  1.0000
  In  In31      1.0  0.64259  0.10741  0.125  1.0000
  In  In32      1.0  0.85741  0.8925899999999999  0.6249999999999999  1.0000
  In  In33      1.0  0.64259  0.60741  0.875  1.0000
  In  In34      1.0  0.85741  0.39259  0.375  1.0000
  In  In35      1.0  0.14259  0.8925899999999999  0.6249999999999999  1.0000
  In  In36      1.0  0.35741  0.10741  0.125  1.0000
  In  In37      1.0  0.85741  0.60741  0.6249999999999999  1.0000
  In  In38      1.0  0.64259  0.39259  0.125  1.0000
  In  In39      1.0  0.35741  0.8925899999999999  0.875  1.0000
  In  In40      1.0  0.14259  0.10741  0.375  1.0000
  In  In41      1.0  0.28722  0.32215  0.02073999999999998  1.0000
  In  In42      1.0  0.21278  0.6778500000000001  0.52074  1.0000
  In  In43      1.0  0.9278500000000001  0.03722000000000003  0.27074  1.0000
  In  In44      1.0  0.5721499999999999  0.9627799999999999  0.77074  1.0000
  In  In45      1.0  0.21278  0.32215  0.47925999999999996  1.0000
  In  In46      1.0  0.28722  0.6778500000000001  0.97926  1.0000
  In  In47      1.0  0.5721499999999999  0.03722000000000003  0.22926000000000002  1.0000
  In  In48      1.0  0.9278500000000001  0.9627799999999999  0.72926  1.0000
  In  In49      1.0  0.7872199999999999  0.8221499999999999  0.52074  1.0000
  In  In50      1.0  0.71278  0.17785  0.02073999999999998  1.0000
  In  In51      1.0  0.42785  0.53722  0.77074  1.0000
  In  In52      1.0  0.07214999999999992  0.46278  0.27074  1.0000
  In  In53      1.0  0.71278  0.8221499999999999  0.97926  1.0000
  In  In54      1.0  0.7872199999999999  0.17785  0.47925999999999996  1.0000
  In  In55      1.0  0.07214999999999992  0.53722  0.72926  1.0000
  In  In56      1.0  0.42785  0.46278  0.22926000000000002  1.0000
  In  In57      1.0  0.71278  0.6778500000000001  0.97926  1.0000
  In  In58      1.0  0.7872199999999999  0.32215  0.47925999999999996  1.0000
  In  In59      1.0  0.07214999999999992  0.9627799999999999  0.72926  1.0000
  In  In60      1.0  0.42785  0.03722000000000003  0.22926000000000002  1.0000
  In  In61      1.0  0.7872199999999999  0.6778500000000001  0.52074  1.0000
  In  In62      1.0  0.71278  0.32215  0.02073999999999998  1.0000
  In  In63      1.0  0.42785  0.9627799999999999  0.77074  1.0000
  In  In64      1.0  0.07214999999999992  0.03722000000000003  0.27074  1.0000
  In  In65      1.0  0.21278  0.17785  0.47925999999999996  1.0000
  In  In66      1.0  0.28722  0.8221499999999999  0.97926  1.0000
  In  In67      1.0  0.5721499999999999  0.46278  0.22926000000000002  1.0000
  In  In68      1.0  0.9278500000000001  0.53722  0.72926  1.0000
  In  In69      1.0  0.28722  0.17785  0.02073999999999998  1.0000
  In  In70      1.0  0.21278  0.8221499999999999  0.52074  1.0000
  In  In71      1.0  0.9278500000000001  0.46278  0.27074  1.0000
  In  In72      1.0  0.5721499999999999  0.53722  0.77074  1.0000
  In  In73      1.0  0.22507  0.25  0.91971  1.0000
  In  In74      1.0  0.27493  0.75  0.41971  1.0000
  In  In75      1.0  0.0  0.97507  0.16971  1.0000
  In  In76      1.0  0.5  0.024930000000000008  0.66971  1.0000
  In  In77      1.0  0.27493  0.25  0.58029  1.0000
  In  In78      1.0  0.22507  0.75  0.08028999999999997  1.0000
  In  In79      1.0  0.5  0.97507  0.33029  1.0000
  In  In80      1.0  0.0  0.024930000000000008  0.83029  1.0000
  In  In81      1.0  0.72507  0.75  0.41971  1.0000
  In  In82      1.0  0.77493  0.25  0.91971  1.0000
  In  In83      1.0  0.5  0.47507  0.66971  1.0000
  In  In84      1.0  0.0  0.52493  0.16971  1.0000
  In  In85      1.0  0.77493  0.75  0.08028999999999997  1.0000
  In  In86      1.0  0.72507  0.25  0.58029  1.0000
  In  In87      1.0  0.0  0.47507  0.83029  1.0000
  In  In88      1.0  0.5  0.52493  0.33029  1.0000
  S   S1        1.0  0.4315  0.25  0.07539999999999991  1.0000
  S   S2        1.0  0.0685  0.75  0.5753999999999999  1.0000
  S   S3        1.0  0.0  0.1815  0.32539999999999997  1.0000
  S   S4        1.0  0.5  0.8184999999999999  0.8253999999999999  1.0000
  S   S5        1.0  0.0685  0.25  0.42460000000000003  1.0000
  S   S6        1.0  0.4315  0.75  0.9246000000000001  1.0000
  S   S7        1.0  0.5  0.1815  0.1746000000000001  1.0000
  S   S8        1.0  0.0  0.8184999999999999  0.6746000000000001  1.0000
  S   S9        1.0  0.9314999999999999  0.75  0.5753999999999999  1.0000
  S   S10       1.0  0.5685  0.25  0.07539999999999991  1.0000
  S   S11       1.0  0.5  0.6815  0.8253999999999999  1.0000
  S   S12       1.0  0.0  0.3185  0.32539999999999997  1.0000
  S   S13       1.0  0.5685  0.75  0.9246000000000001  1.0000
  S   S14       1.0  0.9314999999999999  0.25  0.42460000000000003  1.0000
  S   S15       1.0  0.0  0.6815  0.6746000000000001  1.0000
  S   S16       1.0  0.5  0.3185  0.1746000000000001  1.0000
  S   S17       1.0  0.5  0.3235  0.9664999999999999  1.0000
  S   S18       1.0  0.0  0.6765  0.4664999999999999  1.0000
  S   S19       1.0  0.9265  0.25  0.21649999999999991  1.0000
  S   S20       1.0  0.5735  0.75  0.7164999999999999  1.0000
  S   S21       1.0  0.0  0.3235  0.5335000000000001  1.0000
  S   S22       1.0  0.5  0.6765  0.033500000000000085  1.0000
  S   S23       1.0  0.5735  0.25  0.2835000000000001  1.0000
  S   S24       1.0  0.9265  0.75  0.7835  1.0000
  S   S25       1.0  0.0  0.8235  0.4664999999999999  1.0000
  S   S26       1.0  0.5  0.1765  0.9664999999999999  1.0000
  S   S27       1.0  0.4265  0.75  0.7164999999999999  1.0000
  S   S28       1.0  0.07350000000000012  0.25  0.21649999999999991  1.0000
  S   S29       1.0  0.5  0.8235  0.033500000000000085  1.0000
  S   S30       1.0  0.0  0.1765  0.5335000000000001  1.0000
  S   S31       1.0  0.07350000000000012  0.75  0.7835  1.0000
  S   S32       1.0  0.4265  0.25  0.2835000000000001  1.0000
  S   S33       1.0  0.4294  0.3944  0.07050000000000001  1.0000
  S   S34       1.0  0.0706  0.6056  0.5705  1.0000
  S   S35       1.0  0.8556  0.1794  0.3205  1.0000
  S   S36       1.0  0.6444  0.8206  0.8205  1.0000
  S   S37       1.0  0.0706  0.3944  0.4295  1.0000
  S   S38       1.0  0.4294  0.6056  0.9294999999999999  1.0000
  S   S39       1.0  0.6444  0.1794  0.17949999999999997  1.0000
  S   S40       1.0  0.8556  0.8206  0.6794999999999999  1.0000
  S   S41       1.0  0.9294  0.8943999999999999  0.5705  1.0000
  S   S42       1.0  0.5706  0.10560000000000003  0.07050000000000001  1.0000
  S   S43       1.0  0.3556  0.6794  0.8205  1.0000
  S   S44       1.0  0.14440000000000006  0.3206  0.3205  1.0000
  S   S45       1.0  0.5706  0.8943999999999999  0.9294999999999999  1.0000
  S   S46       1.0  0.9294  0.10560000000000003  0.4295  1.0000
  S   S47       1.0  0.14440000000000006  0.6794  0.6794999999999999  1.0000
  S   S48       1.0  0.3556  0.3206  0.17949999999999997  1.0000
  S   S49       1.0  0.5706  0.6056  0.9294999999999999  1.0000
  S   S50       1.0  0.9294  0.3944  0.4295  1.0000
  S   S51       1.0  0.14440000000000006  0.8206  0.6794999999999999  1.0000
  S   S52       1.0  0.3556  0.1794  0.17949999999999997  1.0000
  S   S53       1.0  0.9294  0.6056  0.5705  1.0000
  S   S54       1.0  0.5706  0.3944  0.07050000000000001  1.0000
  S   S55       1.0  0.3556  0.8206  0.8205  1.0000
  S   S56       1.0  0.14440000000000006  0.1794  0.3205  1.0000
  S   S57       1.0  0.0706  0.10560000000000003  0.4295  1.0000
  S   S58       1.0  0.4294  0.8943999999999999  0.9294999999999999  1.0000
  S   S59       1.0  0.6444  0.3206  0.17949999999999997  1.0000
  S   S60       1.0  0.8556  0.6794  0.6794999999999999  1.0000
  S   S61       1.0  0.4294  0.10560000000000003  0.07050000000000001  1.0000
  S   S62       1.0  0.0706  0.8943999999999999  0.5705  1.0000
  S   S63       1.0  0.8556  0.3206  0.3205  1.0000
  S   S64       1.0  0.6444  0.6794  0.8205  1.0000
  S   S65       1.0  0.3589  0.3227  0.9671  1.0000
  S   S66       1.0  0.1411  0.6772999999999999  0.46709999999999985  1.0000
  S   S67       1.0  0.9273  0.1089  0.21709999999999982  1.0000
  S   S68       1.0  0.5727  0.8911  0.7170999999999998  1.0000
  S   S69       1.0  0.1411  0.3227  0.5329  1.0000
  S   S70       1.0  0.3589  0.6772999999999999  0.03290000000000004  1.0000
  S   S71       1.0  0.5727  0.1089  0.28290000000000004  1.0000
  S   S72       1.0  0.9273  0.8911  0.7829  1.0000
  S   S73       1.0  0.8588999999999999  0.8227  0.46709999999999985  1.0000
  S   S74       1.0  0.6411  0.1773  0.9671  1.0000
  S   S75       1.0  0.42729999999999996  0.6089  0.7170999999999998  1.0000
  S   S76       1.0  0.07269999999999999  0.3911  0.21709999999999982  1.0000
  S   S77       1.0  0.6411  0.8227  0.03290000000000004  1.0000
  S   S78       1.0  0.8588999999999999  0.1773  0.5329  1.0000
  S   S79       1.0  0.07269999999999999  0.6089  0.7829  1.0000
  S   S80       1.0  0.42729999999999996  0.3911  0.28290000000000004  1.0000
  S   S81       1.0  0.6411  0.6772999999999999  0.03290000000000004  1.0000
  S   S82       1.0  0.8588999999999999  0.3227  0.5329  1.0000
  S   S83       1.0  0.07269999999999999  0.8911  0.7829  1.0000
  S   S84       1.0  0.42729999999999996  0.1089  0.28290000000000004  1.0000
  S   S85       1.0  0.8588999999999999  0.6772999999999999  0.46709999999999985  1.0000
  S   S86       1.0  0.6411  0.3227  0.9671  1.0000
  S   S87       1.0  0.42729999999999996  0.8911  0.7170999999999998  1.0000
  S   S88       1.0  0.07269999999999999  0.1089  0.21709999999999982  1.0000
  S   S89       1.0  0.1411  0.1773  0.5329  1.0000
  S   S90       1.0  0.3589  0.8227  0.03290000000000004  1.0000
  S   S91       1.0  0.5727  0.3911  0.28290000000000004  1.0000
  S   S92       1.0  0.9273  0.6089  0.7829  1.0000
  S   S93       1.0  0.3589  0.1773  0.9671  1.0000
  S   S94       1.0  0.1411  0.8227  0.46709999999999985  1.0000
  S   S95       1.0  0.9273  0.3911  0.21709999999999982  1.0000
  S   S96       1.0  0.5727  0.6089  0.7170999999999998  1.0000
  S   S97       1.0  0.2862  0.25  0.07519999999999993  1.0000
  S   S98       1.0  0.21379999999999996  0.75  0.5751999999999999  1.0000
  S   S99       1.0  0.0  0.0362  0.32519999999999993  1.0000
  S   S100      1.0  0.5  0.9638  0.8251999999999999  1.0000
  S   S101      1.0  0.21379999999999996  0.25  0.42480000000000007  1.0000
  S   S102      1.0  0.2862  0.75  0.9248  1.0000
  S   S103      1.0  0.5  0.0362  0.17480000000000004  1.0000
  S   S104      1.0  0.0  0.9638  0.6748000000000001  1.0000
  S   S105      1.0  0.7862  0.75  0.5751999999999999  1.0000
  S   S106      1.0  0.7137999999999999  0.25  0.07519999999999993  1.0000
  S   S107      1.0  0.5  0.5362  0.8251999999999999  1.0000
  S   S108      1.0  0.0  0.4638  0.32519999999999993  1.0000
  S   S109      1.0  0.7137999999999999  0.75  0.9248  1.0000
  S   S110      1.0  0.7862  0.25  0.42480000000000007  1.0000
  S   S111      1.0  0.0  0.5362  0.6748000000000001  1.0000
  S   S112      1.0  0.5  0.4638  0.17480000000000004  1.0000
  S   S113      1.0  0.4303  0.25  0.8606  1.0000
  S   S114      1.0  0.06969999999999998  0.75  0.36060000000000003  1.0000
  S   S115      1.0  0.0  0.1802999999999999  0.11060000000000003  1.0000
  S   S116      1.0  0.5  0.8196999999999999  0.6106  1.0000
  S   S117      1.0  0.06969999999999998  0.25  0.6394  1.0000
  S   S118      1.0  0.4303  0.75  0.13939999999999997  1.0000
  S   S119      1.0  0.5  0.1802999999999999  0.38939999999999997  1.0000
  S   S120      1.0  0.0  0.8196999999999999  0.8894  1.0000
  S   S121      1.0  0.9302999999999999  0.75  0.36060000000000003  1.0000
  S   S122      1.0  0.5697  0.25  0.8606  1.0000
  S   S123      1.0  0.5  0.6803  0.6106  1.0000
  S   S124      1.0  0.0  0.3197  0.11060000000000003  1.0000
  S   S125      1.0  0.5697  0.75  0.13939999999999997  1.0000
  S   S126      1.0  0.9302999999999999  0.25  0.6394  1.0000
  S   S127      1.0  0.0  0.6803  0.8894  1.0000
  S   S128      1.0  0.5  0.3197  0.38939999999999997  1.0000
  S   S129      1.0  0.2899  0.25  0.8606  1.0000
  S   S130      1.0  0.2101  0.75  0.36060000000000003  1.0000
  S   S131      1.0  0.0  0.03990000000000005  0.11060000000000003  1.0000
  S   S132      1.0  0.5  0.9601  0.6106  1.0000
  S   S133      1.0  0.2101  0.25  0.6394  1.0000
  S   S134      1.0  0.2899  0.75  0.13939999999999997  1.0000
  S   S135      1.0  0.5  0.03990000000000005  0.38939999999999997  1.0000
  S   S136      1.0  0.0  0.9601  0.8894  1.0000
  S   S137      1.0  0.7899  0.75  0.36060000000000003  1.0000
  S   S138      1.0  0.7101  0.25  0.8606  1.0000
  S   S139      1.0  0.5  0.5399  0.6106  1.0000
  S   S140      1.0  0.0  0.4601  0.11060000000000003  1.0000
  S   S141      1.0  0.7101  0.75  0.13939999999999997  1.0000
  S   S142      1.0  0.7899  0.25  0.6394  1.0000
  S   S143      1.0  0.0  0.5399  0.8894  1.0000
  S   S144      1.0  0.5  0.4601  0.38939999999999997  1.0000
  S   S145      1.0  0.2165  0.3216999999999999  0.969  1.0000
  S   S146      1.0  0.2835  0.6783000000000001  0.46899999999999986  1.0000
  S   S147      1.0  0.9283  0.9665  0.21899999999999986  1.0000
  S   S148      1.0  0.5716999999999999  0.0335  0.7189999999999999  1.0000
  S   S149      1.0  0.2835  0.3216999999999999  0.531  1.0000
  S   S150      1.0  0.2165  0.6783000000000001  0.031000000000000028  1.0000
  S   S151      1.0  0.5716999999999999  0.9665  0.281  1.0000
  S   S152      1.0  0.9283  0.0335  0.781  1.0000
  S   S153      1.0  0.7165  0.8216999999999999  0.46899999999999986  1.0000
  S   S154      1.0  0.7835  0.17830000000000007  0.969  1.0000
  S   S155      1.0  0.42830000000000007  0.4665  0.7189999999999999  1.0000
  S   S156      1.0  0.07169999999999987  0.5335  0.21899999999999986  1.0000
  S   S157      1.0  0.7835  0.8216999999999999  0.031000000000000028  1.0000
  S   S158      1.0  0.7165  0.17830000000000007  0.531  1.0000
  S   S159      1.0  0.07169999999999987  0.4665  0.781  1.0000
  S   S160      1.0  0.42830000000000007  0.5335  0.281  1.0000
  S   S161      1.0  0.7835  0.6783000000000001  0.031000000000000028  1.0000
  S   S162      1.0  0.7165  0.3216999999999999  0.531  1.0000
  S   S163      1.0  0.07169999999999987  0.0335  0.781  1.0000
  S   S164      1.0  0.42830000000000007  0.9665  0.281  1.0000
  S   S165      1.0  0.7165  0.6783000000000001  0.46899999999999986  1.0000
  S   S166      1.0  0.7835  0.3216999999999999  0.969  1.0000
  S   S167      1.0  0.42830000000000007  0.0335  0.7189999999999999  1.0000
  S   S168      1.0  0.07169999999999987  0.9665  0.21899999999999986  1.0000
  S   S169      1.0  0.2835  0.17830000000000007  0.531  1.0000
  S   S170      1.0  0.2165  0.8216999999999999  0.031000000000000028  1.0000
  S   S171      1.0  0.5716999999999999  0.5335  0.281  1.0000
  S   S172      1.0  0.9283  0.4665  0.781  1.0000
  S   S173      1.0  0.2165  0.17830000000000007  0.969  1.0000
  S   S174      1.0  0.2835  0.8216999999999999  0.46899999999999986  1.0000
  S   S175      1.0  0.9283  0.5335  0.21899999999999986  1.0000
  S   S176      1.0  0.5716999999999999  0.4665  0.7189999999999999  1.0000
  S   S177      1.0  0.2865  0.3938  0.07309999999999994  1.0000
  S   S178      1.0  0.2135  0.6062000000000001  0.5730999999999999  1.0000
  S   S179      1.0  0.8562000000000001  0.03649999999999998  0.32309999999999994  1.0000
  S   S180      1.0  0.6437999999999998  0.9635  0.8230999999999999  1.0000
  S   S181      1.0  0.2135  0.3938  0.42690000000000006  1.0000
  S   S182      1.0  0.2865  0.6062000000000001  0.9269  1.0000
  S   S183      1.0  0.6437999999999998  0.03649999999999998  0.17690000000000006  1.0000
  S   S184      1.0  0.8562000000000001  0.9635  0.6769  1.0000
  S   S185      1.0  0.7865  0.8937999999999999  0.5730999999999999  1.0000
  S   S186      1.0  0.7135  0.10620000000000002  0.07309999999999994  1.0000
  S   S187      1.0  0.35619999999999996  0.5365  0.8230999999999999  1.0000
  S   S188      1.0  0.1437999999999999  0.4635  0.32309999999999994  1.0000
  S   S189      1.0  0.7135  0.8937999999999999  0.9269  1.0000
  S   S190      1.0  0.7865  0.10620000000000002  0.42690000000000006  1.0000
  S   S191      1.0  0.1437999999999999  0.5365  0.6769  1.0000
  S   S192      1.0  0.35619999999999996  0.4635  0.17690000000000006  1.0000
  S   S193      1.0  0.7135  0.6062000000000001  0.9269  1.0000
  S   S194      1.0  0.7865  0.3938  0.42690000000000006  1.0000
  S   S195      1.0  0.1437999999999999  0.9635  0.6769  1.0000
  S   S196      1.0  0.35619999999999996  0.03649999999999998  0.17690000000000006  1.0000
  S   S197      1.0  0.7865  0.6062000000000001  0.5730999999999999  1.0000
  S   S198      1.0  0.7135  0.3938  0.07309999999999994  1.0000
  S   S199      1.0  0.35619999999999996  0.9635  0.8230999999999999  1.0000
  S   S200      1.0  0.1437999999999999  0.03649999999999998  0.32309999999999994  1.0000
  S   S201      1.0  0.2135  0.10620000000000002  0.42690000000000006  1.0000
  S   S202      1.0  0.2865  0.8937999999999999  0.9269  1.0000
  S   S203      1.0  0.6437999999999998  0.4635  0.17690000000000006  1.0000
  S   S204      1.0  0.8562000000000001  0.5365  0.6769  1.0000
  S   S205      1.0  0.2865  0.10620000000000002  0.07309999999999994  1.0000
  S   S206      1.0  0.2135  0.8937999999999999  0.5730999999999999  1.0000
  S   S207      1.0  0.8562000000000001  0.4635  0.32309999999999994  1.0000
  S   S208      1.0  0.6437999999999998  0.5365  0.8230999999999999  1.0000
