data_image0
_chemical_formula_structural       Ca8Al8Sn8O36
_chemical_formula_sum              "Ca8 Al8 Sn8 O36"
_cell_length_a       8.9866
_cell_length_b       5.4894
_cell_length_c       14.903
_cell_angle_alpha    90.0
_cell_angle_beta     90.0
_cell_angle_gamma    90.0

_space_group_name_H-M_alt    "P 1"
_space_group_IT_number       1

loop_
  _space_group_symop_operation_xyz
  'x, y, z'

loop_
  _atom_site_type_symbol
  _atom_site_label
  _atom_site_symmetry_multiplicity
  _atom_site_fract_x
  _atom_site_fract_y
  _atom_site_fract_z
  _atom_site_occupancy
  Ca  Ca1       1.0  0.06714  0.3616  0.14603  1.0000
  Ca  Ca2       1.0  0.43286  0.13840000000000002  0.64603  1.0000
  Ca  Ca3       1.0  0.9328599999999999  0.3616  0.35396999999999995  1.0000
  Ca  Ca4       1.0  0.56714  0.13840000000000002  0.85397  1.0000
  Ca  Ca5       1.0  0.9328599999999999  0.6384000000000001  0.85397  1.0000
  Ca  Ca6       1.0  0.56714  0.8616  0.35396999999999995  1.0000
  Ca  Ca7       1.0  0.06714  0.6384000000000001  0.64603  1.0000
  Ca  Ca8       1.0  0.43286  0.8616  0.14603  1.0000
  Al  Al1       1.0  0.34369  0.31037  0.02817  1.0000
  Al  Al2       1.0  0.15631  0.18963000000000002  0.52817  1.0000
  Al  Al3       1.0  0.65631  0.31037  0.47182999999999997  1.0000
  Al  Al4       1.0  0.8436899999999999  0.18963000000000002  0.97183  1.0000
  Al  Al5       1.0  0.65631  0.68963  0.97183  1.0000
  Al  Al6       1.0  0.8436899999999999  0.81037  0.47182999999999997  1.0000
  Al  Al7       1.0  0.34369  0.68963  0.52817  1.0000
  Al  Al8       1.0  0.15631  0.81037  0.02817  1.0000
  Sn  Sn1       1.0  0.34459  0.36611000000000005  0.333981  1.0000
  Sn  Sn2       1.0  0.15541  0.13388999999999995  0.833981  1.0000
  Sn  Sn3       1.0  0.65541  0.36611000000000005  0.166019  1.0000
  Sn  Sn4       1.0  0.84459  0.13388999999999995  0.666019  1.0000
  Sn  Sn5       1.0  0.65541  0.63389  0.666019  1.0000
  Sn  Sn6       1.0  0.84459  0.86611  0.166019  1.0000
  Sn  Sn7       1.0  0.34459  0.63389  0.833981  1.0000
  Sn  Sn8       1.0  0.15541  0.86611  0.333981  1.0000
  O   O1        1.0  0.1618  0.1912  0.40897  1.0000
  O   O2        1.0  0.3382  0.30879999999999996  0.90897  1.0000
  O   O3        1.0  0.8382000000000001  0.1912  0.09103  1.0000
  O   O4        1.0  0.6617999999999999  0.30879999999999996  0.5910299999999999  1.0000
  O   O5        1.0  0.8382000000000001  0.8087999999999999  0.5910299999999999  1.0000
  O   O6        1.0  0.6617999999999999  0.6912  0.09103  1.0000
  O   O7        1.0  0.1618  0.8087999999999999  0.90897  1.0000
  O   O8        1.0  0.3382  0.6912  0.40897  1.0000
  O   O9        1.0  0.22769999999999999  0.0795  0.07144  1.0000
  O   O10       1.0  0.2723  0.42050000000000004  0.5714399999999998  1.0000
  O   O11       1.0  0.7723  0.0795  0.42856  1.0000
  O   O12       1.0  0.7277  0.42050000000000004  0.92856  1.0000
  O   O13       1.0  0.7723  0.9205  0.92856  1.0000
  O   O14       1.0  0.7277  0.5795  0.42856  1.0000
  O   O15       1.0  0.22769999999999999  0.9205  0.5714399999999998  1.0000
  O   O16       1.0  0.2723  0.5795  0.07144  1.0000
  O   O17       1.0  0.3314  0.0365  0.2724999999999999  1.0000
  O   O18       1.0  0.16860000000000003  0.4635000000000001  0.7725  1.0000
  O   O19       1.0  0.6686000000000001  0.0365  0.22750000000000004  1.0000
  O   O20       1.0  0.8313999999999999  0.4635000000000001  0.7275  1.0000
  O   O21       1.0  0.6686000000000001  0.9635000000000001  0.7275  1.0000
  O   O22       1.0  0.8313999999999999  0.5365  0.22750000000000004  1.0000
  O   O23       1.0  0.3314  0.9635000000000001  0.7725  1.0000
  O   O24       1.0  0.16860000000000003  0.5365  0.2724999999999999  1.0000
  O   O25       1.0  0.5155999999999998  0.231  0.07402  1.0000
  O   O26       1.0  0.9844000000000002  0.269  0.57402  1.0000
  O   O27       1.0  0.48440000000000016  0.231  0.42598  1.0000
  O   O28       1.0  0.015599999999999834  0.269  0.92598  1.0000
  O   O29       1.0  0.48440000000000016  0.769  0.92598  1.0000
  O   O30       1.0  0.015599999999999834  0.731  0.42598  1.0000
  O   O31       1.0  0.5155999999999998  0.769  0.57402  1.0000
  O   O32       1.0  0.9844000000000002  0.731  0.07402  1.0000
  O   O33       1.0  0.0  0.025  0.25  1.0000
  O   O34       1.0  0.5  0.47500000000000003  0.75  1.0000
  O   O35       1.0  0.0  0.975  0.75  1.0000
  O   O36       1.0  0.5  0.525  0.25  1.0000
