data_image0
_chemical_formula_structural       Mo8Rb4P12O48
_chemical_formula_sum              "Mo8 Rb4 P12 O48"
_cell_length_a       8.8314
_cell_length_b       9.2368
_cell_length_c       12.3051
_cell_angle_alpha    90.0
_cell_angle_beta     90.0
_cell_angle_gamma    90.0

_space_group_name_H-M_alt    "P 1"
_space_group_IT_number       1

loop_
  _space_group_symop_operation_xyz
  'x, y, z'

loop_
  _atom_site_type_symbol
  _atom_site_label
  _atom_site_symmetry_multiplicity
  _atom_site_fract_x
  _atom_site_fract_y
  _atom_site_fract_z
  _atom_site_occupancy
  Mo  Mo1       1.0  0.24652  0.02802  0.10087  1.0000
  Mo  Mo2       1.0  0.75348  0.97198  0.60087  1.0000
  Mo  Mo3       1.0  0.24652  0.47198  0.8991300000000001  1.0000
  Mo  Mo4       1.0  0.75348  0.52802  0.39913  1.0000
  Mo  Mo5       1.0  0.75348  0.97198  0.8991300000000001  1.0000
  Mo  Mo6       1.0  0.24652  0.02802  0.39913  1.0000
  Mo  Mo7       1.0  0.75348  0.52802  0.10087  1.0000
  Mo  Mo8       1.0  0.24652  0.47198  0.60087  1.0000
  Rb  Rb1       1.0  0.81179  0.16311  0.25  1.0000
  Rb  Rb2       1.0  0.18820999999999996  0.83689  0.7500000000000001  1.0000
  Rb  Rb3       1.0  0.81179  0.3368900000000001  0.7500000000000001  1.0000
  Rb  Rb4       1.0  0.18820999999999996  0.66311  0.25  1.0000
  P   P1        1.0  0.97518  0.25  0.0  1.0000
  P   P2        1.0  0.02482  0.75  0.5  1.0000
  P   P3        1.0  0.02482  0.75  0.0  1.0000
  P   P4        1.0  0.97518  0.25  0.5  1.0000
  P   P5        1.0  0.4086  0.36033  0.12994  1.0000
  P   P6        1.0  0.5913999999999999  0.63967  0.6299399999999999  1.0000
  P   P7        1.0  0.4086  0.13967000000000002  0.8700600000000002  1.0000
  P   P8        1.0  0.5913999999999999  0.86033  0.37006  1.0000
  P   P9        1.0  0.5913999999999999  0.63967  0.8700600000000002  1.0000
  P   P10       1.0  0.4086  0.36033  0.37006  1.0000
  P   P11       1.0  0.5913999999999999  0.86033  0.12994  1.0000
  P   P12       1.0  0.4086  0.13967000000000002  0.6299399999999999  1.0000
  O   O1        1.0  0.21299  0.01666  0.25  1.0000
  O   O2        1.0  0.78701  0.9833399999999999  0.7500000000000001  1.0000
  O   O3        1.0  0.21299  0.48334  0.7500000000000001  1.0000
  O   O4        1.0  0.78701  0.51666  0.25  1.0000
  O   O5        1.0  0.12277999999999999  0.85049  0.06757  1.0000
  O   O6        1.0  0.87722  0.14951  0.5675700000000001  1.0000
  O   O7        1.0  0.12277999999999999  0.64951  0.93243  1.0000
  O   O8        1.0  0.87722  0.35048999999999997  0.43243  1.0000
  O   O9        1.0  0.87722  0.14951  0.93243  1.0000
  O   O10       1.0  0.12277999999999999  0.85049  0.43243  1.0000
  O   O11       1.0  0.87722  0.35048999999999997  0.06757  1.0000
  O   O12       1.0  0.12277999999999999  0.64951  0.5675700000000001  1.0000
  O   O13       1.0  0.30063  0.04952  0.93781  1.0000
  O   O14       1.0  0.69937  0.95048  0.43781  1.0000
  O   O15       1.0  0.30063  0.45048  0.06219  1.0000
  O   O16       1.0  0.69937  0.54952  0.56219  1.0000
  O   O17       1.0  0.69937  0.95048  0.06219  1.0000
  O   O18       1.0  0.30063  0.04952  0.56219  1.0000
  O   O19       1.0  0.69937  0.54952  0.93781  1.0000
  O   O20       1.0  0.30063  0.45048  0.43781  1.0000
  O   O21       1.0  0.38755  0.1986  0.12234  1.0000
  O   O22       1.0  0.6124499999999999  0.8014000000000001  0.62234  1.0000
  O   O23       1.0  0.38755  0.3014  0.87766  1.0000
  O   O24       1.0  0.6124499999999999  0.6986  0.37766000000000005  1.0000
  O   O25       1.0  0.6124499999999999  0.8014000000000001  0.87766  1.0000
  O   O26       1.0  0.38755  0.1986  0.37766000000000005  1.0000
  O   O27       1.0  0.6124499999999999  0.6986  0.12234  1.0000
  O   O28       1.0  0.38755  0.3014  0.62234  1.0000
  O   O29       1.0  0.42622  0.89315  0.11402  1.0000
  O   O30       1.0  0.57378  0.10685000000000001  0.6140200000000001  1.0000
  O   O31       1.0  0.42622  0.60685  0.88598  1.0000
  O   O32       1.0  0.57378  0.39315  0.38598  1.0000
  O   O33       1.0  0.57378  0.10685000000000001  0.88598  1.0000
  O   O34       1.0  0.42622  0.89315  0.38598  1.0000
  O   O35       1.0  0.57378  0.39315  0.11402  1.0000
  O   O36       1.0  0.42622  0.60685  0.6140200000000001  1.0000
  O   O37       1.0  0.07001  0.16336  0.0804  1.0000
  O   O38       1.0  0.9299899999999999  0.83664  0.5804  1.0000
  O   O39       1.0  0.07001  0.33664  0.9196  1.0000
  O   O40       1.0  0.9299899999999999  0.66336  0.4196  1.0000
  O   O41       1.0  0.9299899999999999  0.83664  0.9196  1.0000
  O   O42       1.0  0.07001  0.16336  0.4196  1.0000
  O   O43       1.0  0.9299899999999999  0.66336  0.0804  1.0000
  O   O44       1.0  0.07001  0.33664  0.5804  1.0000
  O   O45       1.0  0.3613  0.41003000000000006  0.25  1.0000
  O   O46       1.0  0.6387  0.5899699999999999  0.7500000000000001  1.0000
  O   O47       1.0  0.3613  0.08996999999999994  0.7500000000000001  1.0000
  O   O48       1.0  0.6387  0.9100300000000002  0.25  1.0000
