data_image0
_chemical_formula_structural       U9Hg9Ba24S54
_chemical_formula_sum              "U9 Hg9 Ba24 S54"
_cell_length_a       27.175
_cell_length_b       27.174999999999997
_cell_length_c       4.225
_cell_angle_alpha    90.0
_cell_angle_beta     90.0
_cell_angle_gamma    119.99999999999999

_space_group_name_H-M_alt    "P 1"
_space_group_IT_number       1

loop_
  _space_group_symop_operation_xyz
  'x, y, z'

loop_
  _atom_site_type_symbol
  _atom_site_label
  _atom_site_symmetry_multiplicity
  _atom_site_fract_x
  _atom_site_fract_y
  _atom_site_fract_z
  _atom_site_occupancy
  U   U1        1.0  0.19899  0.13357000000000002  0.0  1.0000
  U   U2        1.0  0.9345800000000001  0.8010100000000001  0.0  1.0000
  U   U3        1.0  0.86643  0.06541999999999998  0.0  1.0000
  U   U4        1.0  0.5077500000000001  0.3632800000000001  0.0  1.0000
  U   U5        1.0  0.8555299999999998  0.4922499999999999  0.0  1.0000
  U   U6        1.0  0.6367199999999998  0.1444700000000001  0.0  1.0000
  U   U7        1.0  0.19705  0.47434  0.0  1.0000
  U   U8        1.0  0.27729  0.80295  0.0  1.0000
  U   U9        1.0  0.52566  0.72271  0.0  1.0000
  Hg  Hg1       1.0  0.00759000000000001  0.22989000000000004  0.0  1.0000
  Hg  Hg2       1.0  0.22230000000000003  0.99241  0.0  1.0000
  Hg  Hg3       1.0  0.7701099999999999  0.7777  0.0  1.0000
  Hg  Hg4       1.0  0.32281  0.4272400000000001  0.0  1.0000
  Hg  Hg5       1.0  0.10443000000000006  0.67719  0.0  1.0000
  Hg  Hg6       1.0  0.5727599999999999  0.89557  0.0  1.0000
  Hg  Hg7       1.0  0.46056  0.09133  0.0  1.0000
  Hg  Hg8       1.0  0.6307699999999998  0.5394399999999999  0.0  1.0000
  Hg  Hg9       1.0  0.90867  0.3692300000000001  0.0  1.0000
  Ba  Ba1       1.0  0.33365  0.2974800000000001  0.5  1.0000
  Ba  Ba2       1.0  0.9638300000000001  0.66635  0.5  1.0000
  Ba  Ba3       1.0  0.7025199999999999  0.036169999999999924  0.5  1.0000
  Ba  Ba4       1.0  0.35954999999999987  0.15021  0.5  1.0000
  Ba  Ba5       1.0  0.7906600000000001  0.6404500000000001  0.5  1.0000
  Ba  Ba6       1.0  0.8497900000000002  0.20933999999999994  0.5  1.0000
  Ba  Ba7       1.0  0.03774000000000001  0.11191000000000001  0.5  1.0000
  Ba  Ba8       1.0  0.07416999999999999  0.96226  0.5  1.0000
  Ba  Ba9       1.0  0.88809  0.92583  0.5  1.0000
  Ba  Ba10      1.0  0.47173  0.49194  0.5  1.0000
  Ba  Ba11      1.0  0.02021000000000002  0.52827  0.5  1.0000
  Ba  Ba12      1.0  0.50806  0.9797899999999999  0.5  1.0000
  Ba  Ba13      1.0  0.3660999999999999  0.5865100000000001  0.5  1.0000
  Ba  Ba14      1.0  0.22041000000000016  0.6339000000000001  0.5  1.0000
  Ba  Ba15      1.0  0.4134899999999999  0.7795899999999999  0.5  1.0000
  Ba  Ba16      1.0  0.034390000000000025  0.36783000000000005  0.5  1.0000
  Ba  Ba17      1.0  0.33344000000000007  0.9656100000000001  0.5  1.0000
  Ba  Ba18      1.0  0.6321699999999999  0.66656  0.5  1.0000
  Ba  Ba19      1.0  0.56017  0.24485  0.5  1.0000
  Ba  Ba20      1.0  0.68468  0.4398300000000001  0.5  1.0000
  Ba  Ba21      1.0  0.75515  0.31531999999999993  0.5  1.0000
  Ba  Ba22      1.0  0.1682  0.30777  0.5  1.0000
  Ba  Ba23      1.0  0.13956999999999997  0.8318  0.5  1.0000
  Ba  Ba24      1.0  0.69223  0.86043  0.5  1.0000
  S   S1        1.0  0.08997  0.0601  0.0  1.0000
  S   S2        1.0  0.97013  0.9100300000000001  0.0  1.0000
  S   S3        1.0  0.9399  0.029869999999999997  0.0  1.0000
  S   S4        1.0  0.31003  0.20148000000000002  0.0  1.0000
  S   S5        1.0  0.8914500000000001  0.68997  0.0  1.0000
  S   S6        1.0  0.79852  0.10854999999999995  0.0  1.0000
  S   S7        1.0  0.21101999999999999  0.07508  0.5  1.0000
  S   S8        1.0  0.86406  0.78898  0.5  1.0000
  S   S9        1.0  0.92492  0.13594  0.5  1.0000
  S   S10       1.0  0.18862  0.19112  0.5  1.0000
  S   S11       1.0  0.002500000000000009  0.81138  0.5  1.0000
  S   S12       1.0  0.8088800000000002  0.9975000000000002  0.5  1.0000
  S   S13       1.0  0.4254299999999999  0.3879  0.0  1.0000
  S   S14       1.0  0.9624700000000002  0.57457  0.0  1.0000
  S   S15       1.0  0.6121  0.0375299999999999  0.0  1.0000
  S   S16       1.0  0.5943  0.3466  0.0  1.0000
  S   S17       1.0  0.7522999999999999  0.40569999999999995  0.0  1.0000
  S   S18       1.0  0.6534  0.24770000000000006  0.0  1.0000
  S   S19       1.0  0.55853  0.43765  0.5  1.0000
  S   S20       1.0  0.8791199999999999  0.44147000000000003  0.5  1.0000
  S   S21       1.0  0.56235  0.12087999999999999  0.5  1.0000
  S   S22       1.0  0.45855  0.29138  0.5  1.0000
  S   S23       1.0  0.8328300000000001  0.5414500000000001  0.5  1.0000
  S   S24       1.0  0.70862  0.16717000000000004  0.5  1.0000
  S   S25       1.0  0.12121999999999998  0.36573  0.0  1.0000
  S   S26       1.0  0.24451000000000006  0.8787800000000001  0.0  1.0000
  S   S27       1.0  0.63427  0.75549  0.0  1.0000
  S   S28       1.0  0.27301  0.5807  0.0  1.0000
  S   S29       1.0  0.30769  0.72699  0.0  1.0000
  S   S30       1.0  0.4193  0.69231  0.0  1.0000
  S   S31       1.0  0.14455  0.4932  0.5  1.0000
  S   S32       1.0  0.3486500000000001  0.8554500000000002  0.5  1.0000
  S   S33       1.0  0.5067999999999999  0.65135  0.5  1.0000
  S   S34       1.0  0.25001  0.45468  0.5  1.0000
  S   S35       1.0  0.20466999999999996  0.7499899999999999  0.5  1.0000
  S   S36       1.0  0.54532  0.7953300000000001  0.5  1.0000
  S   S37       1.0  0.08344  0.21133  0.0  1.0000
  S   S38       1.0  0.12788999999999998  0.91656  0.0  1.0000
  S   S39       1.0  0.78867  0.8721099999999999  0.0  1.0000
  S   S40       1.0  0.95121  0.27370000000000005  0.0  1.0000
  S   S41       1.0  0.32248999999999994  0.04878999999999996  0.0  1.0000
  S   S42       1.0  0.7263  0.6775100000000001  0.0  1.0000
  S   S43       1.0  0.26282  0.32792000000000004  0.0  1.0000
  S   S44       1.0  0.06510000000000005  0.73718  0.0  1.0000
  S   S45       1.0  0.67208  0.9349000000000001  0.0  1.0000
  S   S46       1.0  0.40017  0.52103  0.0  1.0000
  S   S47       1.0  0.12085999999999997  0.59983  0.0  1.0000
  S   S48       1.0  0.47897  0.87914  0.0  1.0000
  S   S49       1.0  0.43071999999999994  0.99382  0.0  1.0000
  S   S50       1.0  0.5631  0.56928  0.0  1.0000
  S   S51       1.0  0.006180000000000001  0.43689999999999996  0.0  1.0000
  S   S52       1.0  0.46281  0.17913  0.0  1.0000
  S   S53       1.0  0.7163200000000003  0.5371900000000002  0.0  1.0000
  S   S54       1.0  0.82087  0.28368  0.0  1.0000
