data_image0
_chemical_formula_structural       F6Be3
_chemical_formula_sum              "F6 Be3"
_cell_length_a       4.739
_cell_length_b       4.739
_cell_length_c       5.1875
_cell_angle_alpha    90.0
_cell_angle_beta     90.0
_cell_angle_gamma    119.99999999999999

_space_group_name_H-M_alt    "P 1"
_space_group_IT_number       1

loop_
  _space_group_symop_operation_xyz
  'x, y, z'

loop_
  _atom_site_type_symbol
  _atom_site_label
  _atom_site_symmetry_multiplicity
  _atom_site_fract_x
  _atom_site_fract_y
  _atom_site_fract_z
  _atom_site_occupancy
  F   F1        1.0  0.41640000000000005  0.2671  0.21312000000000003  1.0000
  F   F2        1.0  0.7329  0.14930000000000004  0.5464533333333333  1.0000
  F   F3        1.0  0.8507000000000001  0.5835999999999998  0.8797866666666667  1.0000
  F   F4        1.0  0.2671  0.41640000000000005  0.7868800000000001  1.0000
  F   F5        1.0  0.14930000000000007  0.7329  0.4535466666666666  1.0000
  F   F6        1.0  0.5835999999999999  0.8507  0.1202133333333333  1.0000
  Be  Be1       1.0  0.47  0.0  0.3333  1.0000
  Be  Be2       1.0  6.356313801251271e-18  0.47  0.6666333333333333  1.0000
  Be  Be3       1.0  0.53  0.53  0.9999666666666667  1.0000
