data_image0
_chemical_formula_structural       Gd8Mo20O72
_chemical_formula_sum              "Gd8 Mo20 O72"
_cell_length_a       19.246
_cell_length_b       9.4414
_cell_length_c       9.3446
_cell_angle_alpha    90.0
_cell_angle_beta     90.0
_cell_angle_gamma    90.0

_space_group_name_H-M_alt    "P 1"
_space_group_IT_number       1

loop_
  _space_group_symop_operation_xyz
  'x, y, z'

loop_
  _atom_site_type_symbol
  _atom_site_label
  _atom_site_symmetry_multiplicity
  _atom_site_fract_x
  _atom_site_fract_y
  _atom_site_fract_z
  _atom_site_occupancy
  Gd  Gd1       1.0  0.385182  0.76776  0.9729  1.0000
  Gd  Gd2       1.0  0.11481799999999998  0.73224  0.47290000000000004  1.0000
  Gd  Gd3       1.0  0.885182  0.73224  0.027100000000000003  1.0000
  Gd  Gd4       1.0  0.614818  0.76776  0.5271  1.0000
  Gd  Gd5       1.0  0.614818  0.23224000000000003  0.027100000000000003  1.0000
  Gd  Gd6       1.0  0.885182  0.26776  0.5271  1.0000
  Gd  Gd7       1.0  0.11481799999999998  0.26776  0.9729  1.0000
  Gd  Gd8       1.0  0.385182  0.23224000000000003  0.47290000000000004  1.0000
  Mo  Mo1       1.0  0.30136  0.8677200000000002  0.32376  1.0000
  Mo  Mo2       1.0  0.19863999999999998  0.6322799999999998  0.82376  1.0000
  Mo  Mo3       1.0  0.8013600000000001  0.6322799999999998  0.67624  1.0000
  Mo  Mo4       1.0  0.6986399999999999  0.8677200000000002  0.17624  1.0000
  Mo  Mo5       1.0  0.6986399999999999  0.13227999999999984  0.67624  1.0000
  Mo  Mo6       1.0  0.8013600000000001  0.36772000000000027  0.17624  1.0000
  Mo  Mo7       1.0  0.19863999999999998  0.36772000000000027  0.32376  1.0000
  Mo  Mo8       1.0  0.30136  0.13227999999999984  0.82376  1.0000
  Mo  Mo9       1.0  0.5  0.96416  0.25  1.0000
  Mo  Mo10      1.0  0.0  0.53584  0.75  1.0000
  Mo  Mo11      1.0  0.5  0.03583999999999998  0.75  1.0000
  Mo  Mo12      1.0  0.0  0.4641600000000001  0.25  1.0000
  Mo  Mo13      1.0  0.4101  0.64247  0.5616999999999999  1.0000
  Mo  Mo14      1.0  0.08989999999999998  0.8575300000000001  0.06169999999999992  1.0000
  Mo  Mo15      1.0  0.9101  0.8575300000000001  0.4383000000000001  1.0000
  Mo  Mo16      1.0  0.5899  0.64247  0.9383000000000002  1.0000
  Mo  Mo17      1.0  0.5899  0.35753  0.4383000000000001  1.0000
  Mo  Mo18      1.0  0.9101  0.14246999999999987  0.9383000000000002  1.0000
  Mo  Mo19      1.0  0.08989999999999998  0.14246999999999987  0.5616999999999999  1.0000
  Mo  Mo20      1.0  0.4101  0.35753  0.06169999999999992  1.0000
  O   O1        1.0  0.3839  0.5331  0.05910000000000001  1.0000
  O   O2        1.0  0.11609999999999997  0.9669000000000001  0.5591  1.0000
  O   O3        1.0  0.8839  0.9669000000000001  0.9409  1.0000
  O   O4        1.0  0.6161  0.5331  0.44090000000000007  1.0000
  O   O5        1.0  0.6161  0.4669  0.9409  1.0000
  O   O6        1.0  0.8839  0.03310000000000013  0.44090000000000007  1.0000
  O   O7        1.0  0.11609999999999997  0.03310000000000013  0.05910000000000001  1.0000
  O   O8        1.0  0.3839  0.4669  0.5591  1.0000
  O   O9        1.0  0.4303  0.8588  0.1855  1.0000
  O   O10       1.0  0.06969999999999998  0.6412  0.6855  1.0000
  O   O11       1.0  0.9303  0.6412  0.8145  1.0000
  O   O12       1.0  0.5697  0.8588  0.3145  1.0000
  O   O13       1.0  0.5697  0.1412  0.8145  1.0000
  O   O14       1.0  0.9303  0.3588  0.3145  1.0000
  O   O15       1.0  0.06969999999999998  0.3588  0.1855  1.0000
  O   O16       1.0  0.4303  0.1412  0.6855  1.0000
  O   O17       1.0  0.46740000000000004  0.9295000000000001  0.8861000000000001  1.0000
  O   O18       1.0  0.03259999999999996  0.5704999999999999  0.3861  1.0000
  O   O19       1.0  0.9674  0.5704999999999999  0.11390000000000002  1.0000
  O   O20       1.0  0.5326  0.9295000000000001  0.6139  1.0000
  O   O21       1.0  0.5326  0.0704999999999999  0.11390000000000002  1.0000
  O   O22       1.0  0.9674  0.42949999999999994  0.6139  1.0000
  O   O23       1.0  0.03259999999999996  0.42949999999999994  0.8861000000000001  1.0000
  O   O24       1.0  0.46740000000000004  0.0704999999999999  0.3861  1.0000
  O   O25       1.0  0.504  0.6588  0.9867000000000001  1.0000
  O   O26       1.0  0.996  0.8412  0.4867  1.0000
  O   O27       1.0  0.0040000000000000036  0.8412  0.0133  1.0000
  O   O28       1.0  0.496  0.6588  0.5133  1.0000
  O   O29       1.0  0.496  0.34119999999999995  0.0133  1.0000
  O   O30       1.0  0.0040000000000000036  0.15880000000000005  0.5133  1.0000
  O   O31       1.0  0.996  0.15880000000000005  0.9867000000000001  1.0000
  O   O32       1.0  0.504  0.34119999999999995  0.4867  1.0000
  O   O33       1.0  0.4012  0.7042  0.7333000000000001  1.0000
  O   O34       1.0  0.0988  0.7958  0.2333  1.0000
  O   O35       1.0  0.9011999999999999  0.7958  0.2667  1.0000
  O   O36       1.0  0.5988  0.7042  0.7667  1.0000
  O   O37       1.0  0.5988  0.29579999999999995  0.2667  1.0000
  O   O38       1.0  0.9011999999999999  0.20420000000000016  0.7667  1.0000
  O   O39       1.0  0.0988  0.20420000000000016  0.7333000000000001  1.0000
  O   O40       1.0  0.4012  0.29579999999999995  0.2333  1.0000
  O   O41       1.0  0.2951  0.8243  0.14380000000000004  1.0000
  O   O42       1.0  0.20490000000000003  0.6757  0.6438  1.0000
  O   O43       1.0  0.7950999999999999  0.6757  0.8562000000000001  1.0000
  O   O44       1.0  0.7049000000000001  0.8243  0.3562  1.0000
  O   O45       1.0  0.7049000000000001  0.17569999999999997  0.8562000000000001  1.0000
  O   O46       1.0  0.7950999999999999  0.32430000000000003  0.3562  1.0000
  O   O47       1.0  0.20490000000000003  0.32430000000000003  0.14380000000000004  1.0000
  O   O48       1.0  0.2951  0.17569999999999997  0.6438  1.0000
  O   O49       1.0  0.3568  0.7472  0.4349  1.0000
  O   O50       1.0  0.1432  0.7528  0.9349000000000002  1.0000
  O   O51       1.0  0.8568000000000001  0.7528  0.5650999999999999  1.0000
  O   O52       1.0  0.6432  0.7472  0.06509999999999999  1.0000
  O   O53       1.0  0.6432  0.2528  0.5650999999999999  1.0000
  O   O54       1.0  0.8568000000000001  0.24719999999999986  0.06509999999999999  1.0000
  O   O55       1.0  0.1432  0.24719999999999986  0.4349  1.0000
  O   O56       1.0  0.3568  0.2528  0.9349000000000002  1.0000
  O   O57       1.0  0.3239  0.04249999999999998  0.3521  1.0000
  O   O58       1.0  0.17609999999999998  0.4575  0.8521000000000002  1.0000
  O   O59       1.0  0.8239000000000001  0.4575  0.6478999999999999  1.0000
  O   O60       1.0  0.6760999999999999  0.04249999999999998  0.14789999999999998  1.0000
  O   O61       1.0  0.6760999999999999  0.9575  0.6478999999999999  1.0000
  O   O62       1.0  0.8239000000000001  0.5425  0.14789999999999998  1.0000
  O   O63       1.0  0.17609999999999998  0.5425  0.3521  1.0000
  O   O64       1.0  0.3239  0.9575  0.8521000000000002  1.0000
  O   O65       1.0  0.21959999999999996  0.8458  0.3935  1.0000
  O   O66       1.0  0.28040000000000004  0.6542  0.8935  1.0000
  O   O67       1.0  0.7196  0.6542  0.6065  1.0000
  O   O68       1.0  0.7804  0.8458  0.10649999999999998  1.0000
  O   O69       1.0  0.7804  0.1542  0.6065  1.0000
  O   O70       1.0  0.7196  0.3458000000000001  0.10649999999999998  1.0000
  O   O71       1.0  0.28040000000000004  0.3458000000000001  0.3935  1.0000
  O   O72       1.0  0.21959999999999996  0.1542  0.8935  1.0000
