data_image0
_chemical_formula_structural       Bi16Sr8Cu8Ca4O32
_chemical_formula_sum              "Bi16 Sr8 Cu8 Ca4 O32"
_cell_length_a       5.4112
_cell_length_b       30.873
_cell_length_c       5.416
_cell_angle_alpha    90.0
_cell_angle_beta     90.0
_cell_angle_gamma    90.0

_space_group_name_H-M_alt    "P 1"
_space_group_IT_number       1

loop_
  _space_group_symop_operation_xyz
  'x, y, z'

loop_
  _atom_site_type_symbol
  _atom_site_label
  _atom_site_symmetry_multiplicity
  _atom_site_fract_x
  _atom_site_fract_y
  _atom_site_fract_z
  _atom_site_occupancy
  Bi  Bi1       1.0  0.2264  0.0546  0.455  1.0000
  Bi  Bi2       1.0  0.7736000000000001  0.9454  0.455  1.0000
  Bi  Bi3       1.0  0.2264  0.9454  0.9550000000000001  1.0000
  Bi  Bi4       1.0  0.7736000000000001  0.0546  0.9550000000000001  1.0000
  Bi  Bi5       1.0  0.7263999999999999  0.5546  0.455  1.0000
  Bi  Bi6       1.0  0.2736  0.4454  0.455  1.0000
  Bi  Bi7       1.0  0.7263999999999999  0.4454  0.9550000000000001  1.0000
  Bi  Bi8       1.0  0.2736  0.5546  0.9550000000000001  1.0000
  Bi  Bi9       1.0  0.2264  0.0491  0.559  1.0000
  Bi  Bi10      1.0  0.7736000000000001  0.9509  0.559  1.0000
  Bi  Bi11      1.0  0.2264  0.9509  0.059000000000000156  1.0000
  Bi  Bi12      1.0  0.7736000000000001  0.0491  0.059000000000000156  1.0000
  Bi  Bi13      1.0  0.7263999999999999  0.5491  0.559  1.0000
  Bi  Bi14      1.0  0.2736  0.4509  0.559  1.0000
  Bi  Bi15      1.0  0.7263999999999999  0.4509  0.059000000000000156  1.0000
  Bi  Bi16      1.0  0.2736  0.5491  0.059000000000000156  1.0000
  Sr  Sr1       1.0  0.2504  0.141  0.994  1.0000
  Sr  Sr2       1.0  0.7496000000000002  0.859  0.994  1.0000
  Sr  Sr3       1.0  0.2504  0.859  0.49399999999999994  1.0000
  Sr  Sr4       1.0  0.7496000000000002  0.141  0.49399999999999994  1.0000
  Sr  Sr5       1.0  0.7504000000000001  0.641  0.994  1.0000
  Sr  Sr6       1.0  0.24960000000000002  0.359  0.994  1.0000
  Sr  Sr7       1.0  0.7504000000000001  0.359  0.49399999999999994  1.0000
  Sr  Sr8       1.0  0.24960000000000002  0.641  0.49399999999999994  1.0000
  Cu  Cu1       1.0  0.2488  0.1968  0.5  1.0000
  Cu  Cu2       1.0  0.7512  0.8031999999999999  0.5  1.0000
  Cu  Cu3       1.0  0.2488  0.8031999999999999  0.0  1.0000
  Cu  Cu4       1.0  0.7512  0.1968  0.0  1.0000
  Cu  Cu5       1.0  0.7488  0.6968  0.5  1.0000
  Cu  Cu6       1.0  0.2512  0.3032  0.5  1.0000
  Cu  Cu7       1.0  0.7488  0.3032  0.0  1.0000
  Cu  Cu8       1.0  0.2512  0.6968  0.0  1.0000
  Ca  Ca1       1.0  0.25  0.25  0.9989999999999999  1.0000
  Ca  Ca2       1.0  0.75  0.75  0.9989999999999999  1.0000
  Ca  Ca3       1.0  0.25  0.75  0.49899999999999983  1.0000
  Ca  Ca4       1.0  0.75  0.25  0.49899999999999983  1.0000
  O   O1        1.0  0.14100000000000001  0.050199999999999995  0.19  1.0000
  O   O2        1.0  0.859  0.9498  0.19  1.0000
  O   O3        1.0  0.14100000000000001  0.9498  0.69  1.0000
  O   O4        1.0  0.859  0.050199999999999995  0.69  1.0000
  O   O5        1.0  0.6410000000000001  0.5501999999999999  0.19  1.0000
  O   O6        1.0  0.35900000000000004  0.4498  0.19  1.0000
  O   O7        1.0  0.6410000000000001  0.4498  0.69  1.0000
  O   O8        1.0  0.35900000000000004  0.5501999999999999  0.69  1.0000
  O   O9        1.0  0.28  0.1196  0.574  1.0000
  O   O10       1.0  0.7200000000000001  0.8804  0.574  1.0000
  O   O11       1.0  0.28  0.8804  0.07399999999999984  1.0000
  O   O12       1.0  0.7200000000000001  0.1196  0.07399999999999984  1.0000
  O   O13       1.0  0.7800000000000001  0.6196  0.574  1.0000
  O   O14       1.0  0.22  0.3804  0.574  1.0000
  O   O15       1.0  0.7800000000000001  0.3804  0.07399999999999984  1.0000
  O   O16       1.0  0.22  0.6196  0.07399999999999984  1.0000
  O   O17       1.0  0.001  0.1972  0.24599999999999997  1.0000
  O   O18       1.0  0.999  0.8028  0.24599999999999997  1.0000
  O   O19       1.0  0.001  0.8028  0.7459999999999999  1.0000
  O   O20       1.0  0.999  0.1972  0.7459999999999999  1.0000
  O   O21       1.0  0.5010000000000001  0.6972  0.24599999999999997  1.0000
  O   O22       1.0  0.499  0.3028  0.24599999999999997  1.0000
  O   O23       1.0  0.5010000000000001  0.3028  0.7459999999999999  1.0000
  O   O24       1.0  0.499  0.6972  0.7459999999999999  1.0000
  O   O25       1.0  0.006000000000000002  0.2938  0.24899999999999997  1.0000
  O   O26       1.0  0.994  0.7061999999999999  0.24899999999999997  1.0000
  O   O27       1.0  0.006000000000000002  0.7061999999999999  0.7489999999999999  1.0000
  O   O28       1.0  0.994  0.2938  0.7489999999999999  1.0000
  O   O29       1.0  0.5060000000000001  0.7938000000000001  0.24899999999999997  1.0000
  O   O30       1.0  0.494  0.2062  0.24899999999999997  1.0000
  O   O31       1.0  0.5060000000000001  0.2062  0.7489999999999999  1.0000
  O   O32       1.0  0.494  0.7938000000000001  0.7489999999999999  1.0000
