data_image0
_chemical_formula_structural       Cu18P6
_chemical_formula_sum              "Cu18 P6"
_cell_length_a       7.07
_cell_length_b       7.069999999999999
_cell_length_c       7.135
_cell_angle_alpha    90.0
_cell_angle_beta     90.0
_cell_angle_gamma    119.99999999999999

_space_group_name_H-M_alt    "P 1"
_space_group_IT_number       1

loop_
  _space_group_symop_operation_xyz
  'x, y, z'

loop_
  _atom_site_type_symbol
  _atom_site_label
  _atom_site_symmetry_multiplicity
  _atom_site_fract_x
  _atom_site_fract_y
  _atom_site_fract_z
  _atom_site_occupancy
  Cu  Cu1       1.0  0.0  0.0  0.0  1.0000
  Cu  Cu2       1.0  0.0  0.0  0.5  1.0000
  Cu  Cu3       1.0  0.33330000000000004  0.6667  0.16999999999999996  1.0000
  Cu  Cu4       1.0  0.33330000000000004  0.6667  0.6699999999999998  1.0000
  Cu  Cu5       1.0  0.6667  0.3333000000000001  0.8300000000000001  1.0000
  Cu  Cu6       1.0  0.6667  0.3333000000000001  0.33  1.0000
  Cu  Cu7       1.0  0.69  0.07000000000000002  0.07999999999999997  1.0000
  Cu  Cu8       1.0  0.9299999999999999  0.6199999999999999  0.07999999999999997  1.0000
  Cu  Cu9       1.0  0.3800000000000001  0.31000000000000005  0.07999999999999997  1.0000
  Cu  Cu10      1.0  0.9299999999999999  0.31000000000000005  0.5799999999999998  1.0000
  Cu  Cu11      1.0  0.69  0.6199999999999999  0.5799999999999998  1.0000
  Cu  Cu12      1.0  0.3800000000000001  0.07000000000000002  0.5799999999999998  1.0000
  Cu  Cu13      1.0  0.3100000000000001  0.93  0.92  1.0000
  Cu  Cu14      1.0  0.07000000000000005  0.38000000000000017  0.92  1.0000
  Cu  Cu15      1.0  0.6199999999999999  0.6900000000000001  0.92  1.0000
  Cu  Cu16      1.0  0.07000000000000006  0.6900000000000001  0.42  1.0000
  Cu  Cu17      1.0  0.31000000000000005  0.38000000000000017  0.42  1.0000
  Cu  Cu18      1.0  0.6199999999999999  0.93  0.42  1.0000
  P   P1        1.0  0.38000000000000006  0.0  0.25  1.0000
  P   P2        1.0  6.10701180023653e-18  0.38000000000000006  0.25  1.0000
  P   P3        1.0  0.6199999999999999  0.6199999999999999  0.25  1.0000
  P   P4        1.0  2.8950596438457426e-17  0.6199999999999999  0.75  1.0000
  P   P5        1.0  0.38000000000000006  0.38000000000000006  0.75  1.0000
  P   P6        1.0  0.6199999999999999  0.0  0.75  1.0000
