data_image0
_chemical_formula_structural       Ba6Ti40O80
_chemical_formula_sum              "Ba6 Ti40 O80"
_cell_length_a       10.227
_cell_length_b       14.907
_cell_length_c       9.964
_cell_angle_alpha    90.0
_cell_angle_beta     90.77
_cell_angle_gamma    90.0

_space_group_name_H-M_alt    "P 1"
_space_group_IT_number       1

loop_
  _space_group_symop_operation_xyz
  'x, y, z'

loop_
  _atom_site_type_symbol
  _atom_site_label
  _atom_site_symmetry_multiplicity
  _atom_site_fract_x
  _atom_site_fract_y
  _atom_site_fract_z
  _atom_site_occupancy
  Ba  Ba1       1.0  0.0  0.13264  0.0  1.0000
  Ba  Ba2       1.0  0.0  0.86736  0.0  1.0000
  Ba  Ba3       1.0  0.5  0.6326400000000001  0.5  1.0000
  Ba  Ba4       1.0  0.5  0.36736  0.5  1.0000
  Ba  Ba5       1.0  0.0  0.5  0.0  1.0000
  Ba  Ba6       1.0  0.5  0.0  0.5  1.0000
  Ti  Ti1       1.0  0.6556  0.0  0.163  0.8500
  Ti  Ti2       1.0  0.34440000000000004  0.0  0.837  0.8500
  Ti  Ti3       1.0  0.15559999999999996  0.5  0.663  0.8500
  Ti  Ti4       1.0  0.8444  0.5  0.337  0.8500
  Ti  Ti5       1.0  0.6428  0.1993  0.1779  0.8500
  Ti  Ti6       1.0  0.3571999999999999  0.1993  0.8221000000000002  0.8500
  Ti  Ti7       1.0  0.3571999999999999  0.8007  0.8221000000000002  0.8500
  Ti  Ti8       1.0  0.6428  0.8007  0.1779  0.8500
  Ti  Ti9       1.0  0.14280000000000004  0.6993  0.6779  0.8500
  Ti  Ti10      1.0  0.8571999999999999  0.6993  0.3221  0.8500
  Ti  Ti11      1.0  0.8571999999999999  0.30069999999999997  0.3221  0.8500
  Ti  Ti12      1.0  0.14280000000000004  0.30069999999999997  0.6779  0.8500
  Ti  Ti13      1.0  0.6473999999999999  0.4001  0.1629  0.8500
  Ti  Ti14      1.0  0.35260000000000014  0.4001  0.8371000000000001  0.8500
  Ti  Ti15      1.0  0.35260000000000014  0.5999000000000001  0.8371000000000001  0.8500
  Ti  Ti16      1.0  0.6473999999999999  0.5999000000000001  0.1629  0.8500
  Ti  Ti17      1.0  0.14739999999999975  0.9001  0.6629  0.8500
  Ti  Ti18      1.0  0.8526  0.9001  0.3371  0.8500
  Ti  Ti19      1.0  0.8526  0.09989999999999999  0.3371  0.8500
  Ti  Ti20      1.0  0.14739999999999975  0.09989999999999999  0.6629  0.8500
  Ti  Ti21      1.0  0.158  0.0  0.34  0.8500
  Ti  Ti22      1.0  0.842  0.0  0.6599999999999999  0.8500
  Ti  Ti23      1.0  0.658  0.5  0.8400000000000002  0.8500
  Ti  Ti24      1.0  0.34199999999999997  0.5  0.15999999999999998  0.8500
  Ti  Ti25      1.0  0.17309999999999998  0.1993  0.354  0.8500
  Ti  Ti26      1.0  0.8269  0.1993  0.646  0.8500
  Ti  Ti27      1.0  0.8269  0.8007  0.646  0.8500
  Ti  Ti28      1.0  0.17309999999999998  0.8007  0.354  0.8500
  Ti  Ti29      1.0  0.6731  0.6993  0.854  0.8500
  Ti  Ti30      1.0  0.3269  0.6993  0.14600000000000002  0.8500
  Ti  Ti31      1.0  0.3269  0.30069999999999997  0.14600000000000002  0.8500
  Ti  Ti32      1.0  0.6731  0.30069999999999997  0.854  0.8500
  Ti  Ti33      1.0  0.1613  0.3999000000000001  0.3476  0.8500
  Ti  Ti34      1.0  0.8387  0.3999000000000001  0.6524  0.8500
  Ti  Ti35      1.0  0.8387  0.6001000000000001  0.6524  0.8500
  Ti  Ti36      1.0  0.1613  0.6001000000000001  0.3476  0.8500
  Ti  Ti37      1.0  0.6613000000000001  0.8999  0.8476000000000001  0.8500
  Ti  Ti38      1.0  0.3387  0.8999  0.15239999999999998  0.8500
  Ti  Ti39      1.0  0.3387  0.10009999999999997  0.15239999999999998  0.8500
  Ti  Ti40      1.0  0.6613000000000001  0.10009999999999997  0.8476000000000001  0.8500
  O   O1        1.0  0.8449999999999999  0.0  0.195  1.0000
  O   O2        1.0  0.15500000000000014  0.0  0.8049999999999999  1.0000
  O   O3        1.0  0.34499999999999975  0.5  0.6950000000000001  1.0000
  O   O4        1.0  0.6550000000000001  0.5  0.305  1.0000
  O   O5        1.0  0.842  0.201  0.1974  1.0000
  O   O6        1.0  0.158  0.201  0.8026  1.0000
  O   O7        1.0  0.158  0.7989999999999999  0.8026  1.0000
  O   O8        1.0  0.842  0.7989999999999999  0.1974  1.0000
  O   O9        1.0  0.3420000000000001  0.7010000000000002  0.6974  1.0000
  O   O10       1.0  0.658  0.7010000000000002  0.3026  1.0000
  O   O11       1.0  0.658  0.29900000000000004  0.3026  1.0000
  O   O12       1.0  0.3420000000000001  0.29900000000000004  0.6974  1.0000
  O   O13       1.0  0.842  0.40170000000000006  0.2  1.0000
  O   O14       1.0  0.158  0.40170000000000006  0.8  1.0000
  O   O15       1.0  0.158  0.5982999999999999  0.8  1.0000
  O   O16       1.0  0.842  0.5982999999999999  0.2  1.0000
  O   O17       1.0  0.3420000000000001  0.9017000000000001  0.7  1.0000
  O   O18       1.0  0.658  0.9017000000000001  0.3  1.0000
  O   O19       1.0  0.658  0.09829999999999994  0.3  1.0000
  O   O20       1.0  0.3420000000000001  0.09829999999999994  0.7  1.0000
  O   O21       1.0  0.851  0.0  0.461  1.0000
  O   O22       1.0  0.14900000000000002  0.0  0.5389999999999999  1.0000
  O   O23       1.0  0.351  0.5  0.9610000000000002  1.0000
  O   O24       1.0  0.649  0.5  0.03899999999999998  1.0000
  O   O25       1.0  0.8448999999999999  0.2  0.4576  1.0000
  O   O26       1.0  0.15510000000000013  0.2  0.5424  1.0000
  O   O27       1.0  0.15510000000000013  0.8  0.5424  1.0000
  O   O28       1.0  0.8448999999999999  0.8  0.4576  1.0000
  O   O29       1.0  0.3449  0.7  0.9575999999999999  1.0000
  O   O30       1.0  0.6551  0.7  0.04239999999999999  1.0000
  O   O31       1.0  0.6551  0.30000000000000004  0.04239999999999999  1.0000
  O   O32       1.0  0.3449  0.30000000000000004  0.9575999999999999  1.0000
  O   O33       1.0  0.8363  0.3989000000000001  0.4600000000000001  1.0000
  O   O34       1.0  0.16369999999999996  0.3989000000000001  0.5399999999999999  1.0000
  O   O35       1.0  0.16369999999999996  0.6011  0.5399999999999999  1.0000
  O   O36       1.0  0.8363  0.6011  0.4600000000000001  1.0000
  O   O37       1.0  0.3363  0.8989  0.9600000000000002  1.0000
  O   O38       1.0  0.6637  0.8989  0.039999999999999925  1.0000
  O   O39       1.0  0.6637  0.10109999999999997  0.039999999999999925  1.0000
  O   O40       1.0  0.3363  0.10109999999999997  0.9600000000000002  1.0000
  O   O41       1.0  0.203  0.0  0.149  1.0000
  O   O42       1.0  0.7969999999999999  0.0  0.851  1.0000
  O   O43       1.0  0.7030000000000001  0.5  0.649  1.0000
  O   O44       1.0  0.297  0.5  0.351  1.0000
  O   O45       1.0  0.2048  0.19800000000000006  0.15100000000000002  1.0000
  O   O46       1.0  0.7952  0.19800000000000006  0.849  1.0000
  O   O47       1.0  0.7952  0.8019999999999999  0.849  1.0000
  O   O48       1.0  0.2048  0.8019999999999999  0.15100000000000002  1.0000
  O   O49       1.0  0.7048  0.6980000000000001  0.651  1.0000
  O   O50       1.0  0.2952  0.6980000000000001  0.349  1.0000
  O   O51       1.0  0.2952  0.30199999999999994  0.349  1.0000
  O   O52       1.0  0.7048  0.30199999999999994  0.651  1.0000
  O   O53       1.0  0.20599999999999996  0.4004  0.15  1.0000
  O   O54       1.0  0.794  0.4004  0.85  1.0000
  O   O55       1.0  0.794  0.5996  0.85  1.0000
  O   O56       1.0  0.20599999999999996  0.5996  0.15  1.0000
  O   O57       1.0  0.706  0.9004000000000001  0.65  1.0000
  O   O58       1.0  0.29400000000000004  0.9004000000000001  0.35  1.0000
  O   O59       1.0  0.29400000000000004  0.09960000000000002  0.35  1.0000
  O   O60       1.0  0.706  0.09960000000000002  0.65  1.0000
  O   O61       1.0  0.462  0.0  0.169  1.0000
  O   O62       1.0  0.538  0.0  0.8310000000000001  1.0000
  O   O63       1.0  0.962  0.5  0.6690000000000002  1.0000
  O   O64       1.0  0.03799999999999998  0.5  0.33099999999999996  1.0000
  O   O65       1.0  0.45729999999999993  0.201  0.1716  1.0000
  O   O66       1.0  0.5427000000000001  0.201  0.8284  1.0000
  O   O67       1.0  0.5427000000000001  0.7989999999999999  0.8284  1.0000
  O   O68       1.0  0.45729999999999993  0.7989999999999999  0.1716  1.0000
  O   O69       1.0  0.9572999999999999  0.7010000000000002  0.6716  1.0000
  O   O70       1.0  0.042700000000000064  0.7010000000000002  0.3284  1.0000
  O   O71       1.0  0.042700000000000064  0.29900000000000004  0.3284  1.0000
  O   O72       1.0  0.9572999999999999  0.29900000000000004  0.6716  1.0000
  O   O73       1.0  0.459  0.3994  0.1838  1.0000
  O   O74       1.0  0.5409999999999999  0.3994  0.8162  1.0000
  O   O75       1.0  0.5409999999999999  0.6006  0.8162  1.0000
  O   O76       1.0  0.459  0.6006  0.1838  1.0000
  O   O77       1.0  0.959  0.8994  0.6838  1.0000
  O   O78       1.0  0.04099999999999998  0.8994  0.31620000000000004  1.0000
  O   O79       1.0  0.04099999999999998  0.10060000000000002  0.31620000000000004  1.0000
  O   O80       1.0  0.959  0.10060000000000002  0.6838  1.0000
  Mg  Mg1       1.0  0.6556  0.0  0.163  0.1500
  Mg  Mg2       1.0  0.34440000000000004  0.0  0.837  0.1500
  Mg  Mg3       1.0  0.15559999999999996  0.5  0.663  0.1500
  Mg  Mg4       1.0  0.8444  0.5  0.337  0.1500
  Mg  Mg5       1.0  0.6428  0.1993  0.1779  0.1500
  Mg  Mg6       1.0  0.3571999999999999  0.1993  0.8221000000000002  0.1500
  Mg  Mg7       1.0  0.3571999999999999  0.8007  0.8221000000000002  0.1500
  Mg  Mg8       1.0  0.6428  0.8007  0.1779  0.1500
  Mg  Mg9       1.0  0.14280000000000004  0.6993  0.6779  0.1500
  Mg  Mg10      1.0  0.8571999999999999  0.6993  0.3221  0.1500
  Mg  Mg11      1.0  0.8571999999999999  0.30069999999999997  0.3221  0.1500
  Mg  Mg12      1.0  0.14280000000000004  0.30069999999999997  0.6779  0.1500
  Mg  Mg13      1.0  0.6473999999999999  0.4001  0.1629  0.1500
  Mg  Mg14      1.0  0.35260000000000014  0.4001  0.8371000000000001  0.1500
  Mg  Mg15      1.0  0.35260000000000014  0.5999000000000001  0.8371000000000001  0.1500
  Mg  Mg16      1.0  0.6473999999999999  0.5999000000000001  0.1629  0.1500
  Mg  Mg17      1.0  0.14739999999999975  0.9001  0.6629  0.1500
  Mg  Mg18      1.0  0.8526  0.9001  0.3371  0.1500
  Mg  Mg19      1.0  0.8526  0.09989999999999999  0.3371  0.1500
  Mg  Mg20      1.0  0.14739999999999975  0.09989999999999999  0.6629  0.1500
  Mg  Mg21      1.0  0.158  0.0  0.34  0.1500
  Mg  Mg22      1.0  0.842  0.0  0.6599999999999999  0.1500
  Mg  Mg23      1.0  0.658  0.5  0.8400000000000002  0.1500
  Mg  Mg24      1.0  0.34199999999999997  0.5  0.15999999999999998  0.1500
  Mg  Mg25      1.0  0.17309999999999998  0.1993  0.354  0.1500
  Mg  Mg26      1.0  0.8269  0.1993  0.646  0.1500
  Mg  Mg27      1.0  0.8269  0.8007  0.646  0.1500
  Mg  Mg28      1.0  0.17309999999999998  0.8007  0.354  0.1500
  Mg  Mg29      1.0  0.6731  0.6993  0.854  0.1500
  Mg  Mg30      1.0  0.3269  0.6993  0.14600000000000002  0.1500
  Mg  Mg31      1.0  0.3269  0.30069999999999997  0.14600000000000002  0.1500
  Mg  Mg32      1.0  0.6731  0.30069999999999997  0.854  0.1500
  Mg  Mg33      1.0  0.1613  0.3999000000000001  0.3476  0.1500
  Mg  Mg34      1.0  0.8387  0.3999000000000001  0.6524  0.1500
  Mg  Mg35      1.0  0.8387  0.6001000000000001  0.6524  0.1500
  Mg  Mg36      1.0  0.1613  0.6001000000000001  0.3476  0.1500
  Mg  Mg37      1.0  0.6613000000000001  0.8999  0.8476000000000001  0.1500
  Mg  Mg38      1.0  0.3387  0.8999  0.15239999999999998  0.1500
  Mg  Mg39      1.0  0.3387  0.10009999999999997  0.15239999999999998  0.1500
  Mg  Mg40      1.0  0.6613000000000001  0.10009999999999997  0.8476000000000001  0.1500
