data_image0
_chemical_formula_structural       V6O16N4H16
_chemical_formula_sum              "V6 O16 N4 H16"
_cell_length_a       8.629
_cell_length_b       8.629
_cell_length_c       5.648
_cell_angle_alpha    90.0
_cell_angle_beta     90.0
_cell_angle_gamma    90.0

_space_group_name_H-M_alt    "P 1"
_space_group_IT_number       1

loop_
  _space_group_symop_operation_xyz
  'x, y, z'

loop_
  _atom_site_type_symbol
  _atom_site_label
  _atom_site_symmetry_multiplicity
  _atom_site_fract_x
  _atom_site_fract_y
  _atom_site_fract_z
  _atom_site_occupancy
  V   V1        1.0  0.36940000000000006  0.1308  0.0077  0.5200
  V   V2        1.0  0.6305999999999999  0.8692  0.0077  0.5200
  V   V3        1.0  0.1308  0.6305999999999999  0.0077  0.5200
  V   V4        1.0  0.8692  0.36940000000000006  0.0077  0.5200
  V   V5        1.0  0.5  0.5  0.0  1.0000
  V   V6        1.0  0.0  0.0  0.0086  1.0000
  O   O1        1.0  0.0  0.0  0.2928  1.0000
  O   O2        1.0  0.5  0.5  0.2802  1.0000
  O   O3        1.0  0.3698  0.1302  0.2857  1.0000
  O   O4        1.0  0.6302  0.8698  0.2857  1.0000
  O   O5        1.0  0.1302  0.6302  0.2857  1.0000
  O   O6        1.0  0.8698  0.3698  0.2857  1.0000
  O   O7        1.0  0.5  0.0  0.9077999999999999  1.0000
  O   O8        1.0  0.0  0.5  0.9077999999999999  1.0000
  O   O9        1.0  0.4166  0.2987000000000001  0.9009000000000001  1.0000
  O   O10       1.0  0.5833999999999999  0.7012999999999999  0.9009000000000001  1.0000
  O   O11       1.0  0.2987000000000001  0.5833999999999999  0.9009000000000001  1.0000
  O   O12       1.0  0.7012999999999999  0.4166  0.9009000000000001  1.0000
  O   O13       1.0  0.2018  0.083  0.9015000000000001  1.0000
  O   O14       1.0  0.7982  0.917  0.9015000000000001  1.0000
  O   O15       1.0  0.083  0.7982  0.9015000000000001  1.0000
  O   O16       1.0  0.917  0.2018  0.9015000000000001  1.0000
  N   N1        1.0  0.17  0.3308  0.5292  1.0000
  N   N2        1.0  0.83  0.6692000000000001  0.5292  1.0000
  N   N3        1.0  0.3308  0.83  0.5292  1.0000
  N   N4        1.0  0.6692000000000001  0.17  0.5292  1.0000
  H   H1        1.0  0.2388  0.27040000000000003  0.45280000000000004  1.0000
  H   H2        1.0  0.7612  0.7296  0.45280000000000004  1.0000
  H   H3        1.0  0.27040000000000003  0.7612  0.45280000000000004  1.0000
  H   H4        1.0  0.7296  0.2388  0.45280000000000004  1.0000
  H   H5        1.0  0.0858  0.3445  0.43760000000000004  1.0000
  H   H6        1.0  0.9142  0.6555000000000001  0.43760000000000004  1.0000
  H   H7        1.0  0.3445  0.9142  0.43760000000000004  1.0000
  H   H8        1.0  0.6555000000000001  0.0858  0.43760000000000004  1.0000
  H   H9        1.0  0.21350000000000005  0.4234  0.5606  1.0000
  H   H10       1.0  0.7865  0.5766  0.5606  1.0000
  H   H11       1.0  0.4234  0.7865  0.5606  1.0000
  H   H12       1.0  0.5766  0.21350000000000005  0.5606  1.0000
  H   H13       1.0  0.142  0.2849  0.6658  1.0000
  H   H14       1.0  0.8580000000000001  0.7151000000000002  0.6658  1.0000
  H   H15       1.0  0.2849  0.8580000000000001  0.6658  1.0000
  H   H16       1.0  0.7151000000000002  0.142  0.6658  1.0000
  P   P1        1.0  0.36940000000000006  0.1308  0.0077  0.4800
  P   P2        1.0  0.6305999999999999  0.8692  0.0077  0.4800
  P   P3        1.0  0.1308  0.6305999999999999  0.0077  0.4800
  P   P4        1.0  0.8692  0.36940000000000006  0.0077  0.4800
