data_image0
_chemical_formula_structural       Na8Al6Si6O24Cl2
_chemical_formula_sum              "Na8 Al6 Si6 O24 Cl2"
_cell_length_a       8.875
_cell_length_b       8.875
_cell_length_c       8.875
_cell_angle_alpha    90.0
_cell_angle_beta     90.0
_cell_angle_gamma    90.0

_space_group_name_H-M_alt    "P 1"
_space_group_IT_number       1

loop_
  _space_group_symop_operation_xyz
  'x, y, z'

loop_
  _atom_site_type_symbol
  _atom_site_label
  _atom_site_symmetry_multiplicity
  _atom_site_fract_x
  _atom_site_fract_y
  _atom_site_fract_z
  _atom_site_occupancy
  Na  Na1       1.0  0.1777  0.1777  0.1777  1.0000
  Na  Na2       1.0  0.6777  0.32230000000000003  0.32230000000000003  1.0000
  Na  Na3       1.0  0.8223000000000001  0.8223000000000001  0.1777  1.0000
  Na  Na4       1.0  0.32230000000000003  0.6777  0.32230000000000003  1.0000
  Na  Na5       1.0  0.1777  0.8223000000000001  0.8223000000000001  1.0000
  Na  Na6       1.0  0.32230000000000003  0.32230000000000003  0.6777  1.0000
  Na  Na7       1.0  0.8223000000000001  0.1777  0.8223000000000001  1.0000
  Na  Na8       1.0  0.6777  0.6777  0.6777  1.0000
  Al  Al1       1.0  0.25  0.0  0.5  1.0000
  Al  Al2       1.0  0.5  0.25  0.0  1.0000
  Al  Al3       1.0  0.75  0.0  0.5  1.0000
  Al  Al4       1.0  0.5  0.75  0.0  1.0000
  Al  Al5       1.0  0.0  0.5  0.25  1.0000
  Al  Al6       1.0  0.0  0.5  0.75  1.0000
  Si  Si1       1.0  0.25  0.5  0.0  1.0000
  Si  Si2       1.0  0.0  0.25  0.5  1.0000
  Si  Si3       1.0  0.75  0.5  0.0  1.0000
  Si  Si4       1.0  0.0  0.75  0.5  1.0000
  Si  Si5       1.0  0.5  0.0  0.25  1.0000
  Si  Si6       1.0  0.5  0.0  0.75  1.0000
  O   O1        1.0  0.1387  0.1484  0.4375  1.0000
  O   O2        1.0  0.6484  0.3613  0.0625  1.0000
  O   O3        1.0  0.8613  0.8516  0.4375  1.0000
  O   O4        1.0  0.3516000000000001  0.6387  0.0625  1.0000
  O   O5        1.0  0.1387  0.8516  0.5625  1.0000
  O   O6        1.0  0.3516000000000001  0.3613  0.9375  1.0000
  O   O7        1.0  0.8613  0.1484  0.5625  1.0000
  O   O8        1.0  0.6484  0.6387  0.9375  1.0000
  O   O9        1.0  0.4375  0.1387  0.1484  1.0000
  O   O10       1.0  0.6387  0.0625  0.3516000000000001  1.0000
  O   O11       1.0  0.5625  0.8613  0.1484  1.0000
  O   O12       1.0  0.3613  0.9375  0.3516000000000001  1.0000
  O   O13       1.0  0.4375  0.8613  0.8516  1.0000
  O   O14       1.0  0.3613  0.0625  0.6484  1.0000
  O   O15       1.0  0.5625  0.1387  0.8516  1.0000
  O   O16       1.0  0.6387  0.9375  0.6484  1.0000
  O   O17       1.0  0.1484  0.4375  0.1387  1.0000
  O   O18       1.0  0.1484  0.5625  0.8613  1.0000
  O   O19       1.0  0.0625  0.3516000000000001  0.6387  1.0000
  O   O20       1.0  0.8516  0.4375  0.8613  1.0000
  O   O21       1.0  0.9375  0.6484  0.6387  1.0000
  O   O22       1.0  0.8516  0.5625  0.1387  1.0000
  O   O23       1.0  0.0625  0.6484  0.3613  1.0000
  O   O24       1.0  0.9375  0.3516000000000001  0.3613  1.0000
  Cl  Cl1       1.0  0.0  0.0  0.0  1.0000
  Cl  Cl2       1.0  0.5  0.5  0.5  1.0000
