data_image0
_chemical_formula_structural       O24Na8Be8Si16O8
_chemical_formula_sum              "O32 Na8 Be8 Si16"
_cell_length_a       9.8276
_cell_length_b       9.8276
_cell_length_c       9.6372
_cell_angle_alpha    90.0
_cell_angle_beta     90.0
_cell_angle_gamma    90.0

_space_group_name_H-M_alt    "P 1"
_space_group_IT_number       1

loop_
  _space_group_symop_operation_xyz
  'x, y, z'

loop_
  _atom_site_type_symbol
  _atom_site_label
  _atom_site_symmetry_multiplicity
  _atom_site_fract_x
  _atom_site_fract_y
  _atom_site_fract_z
  _atom_site_occupancy
  O   O1        1.0  0.21409999999999998  0.188  0.1617  1.0000
  O   O2        1.0  0.7858999999999999  0.812  0.1617  1.0000
  O   O3        1.0  0.188  0.7858999999999999  0.8383  1.0000
  O   O4        1.0  0.812  0.21409999999999998  0.8383  1.0000
  O   O5        1.0  0.7141  0.688  0.6617000000000001  1.0000
  O   O6        1.0  0.28590000000000004  0.312  0.6617000000000001  1.0000
  O   O7        1.0  0.688  0.28590000000000004  0.33830000000000005  1.0000
  O   O8        1.0  0.312  0.7141  0.33830000000000005  1.0000
  O   O9        1.0  0.17819999999999997  0.5222999999999999  0.7984000000000001  1.0000
  O   O10       1.0  0.8218000000000001  0.4777000000000001  0.7984000000000001  1.0000
  O   O11       1.0  0.5222999999999999  0.8218000000000001  0.20160000000000003  1.0000
  O   O12       1.0  0.4777000000000001  0.17819999999999997  0.20160000000000003  1.0000
  O   O13       1.0  0.6781999999999999  0.022299999999999986  0.29840000000000005  1.0000
  O   O14       1.0  0.3218  0.9777  0.29840000000000005  1.0000
  O   O15       1.0  0.022299999999999986  0.3218  0.7016  1.0000
  O   O16       1.0  0.9777  0.6781999999999999  0.7016  1.0000
  O   O17       1.0  0.1917  0.2814999999999999  0.9169  1.0000
  O   O18       1.0  0.8082999999999999  0.7185000000000001  0.9169  1.0000
  O   O19       1.0  0.2814999999999999  0.8082999999999999  0.0831  1.0000
  O   O20       1.0  0.7185000000000001  0.1917  0.0831  1.0000
  O   O21       1.0  0.6917  0.7814999999999998  0.4169  1.0000
  O   O22       1.0  0.3083  0.21850000000000008  0.4169  1.0000
  O   O23       1.0  0.7814999999999998  0.3083  0.5831  1.0000
  O   O24       1.0  0.21850000000000008  0.6917  0.5831  1.0000
  Na  Na1       1.0  0.9783999999999999  0.13  0.3689000000000001  1.0000
  Na  Na2       1.0  0.0216  0.87  0.3689000000000001  1.0000
  Na  Na3       1.0  0.13  0.0216  0.6311000000000001  1.0000
  Na  Na4       1.0  0.87  0.9783999999999999  0.6311000000000001  1.0000
  Na  Na5       1.0  0.4784  0.6299999999999999  0.8689  1.0000
  Na  Na6       1.0  0.5215999999999998  0.37  0.8689  1.0000
  Na  Na7       1.0  0.6299999999999999  0.5215999999999998  0.13109999999999997  1.0000
  Na  Na8       1.0  0.37  0.4784  0.13109999999999997  1.0000
  Be  Be1       1.0  0.124  0.37699999999999995  0.312  1.0000
  Be  Be2       1.0  0.876  0.6229999999999999  0.312  1.0000
  Be  Be3       1.0  0.37699999999999995  0.876  0.6880000000000001  1.0000
  Be  Be4       1.0  0.6229999999999999  0.124  0.6880000000000001  1.0000
  Be  Be5       1.0  0.624  0.877  0.812  1.0000
  Be  Be6       1.0  0.376  0.12300000000000005  0.812  1.0000
  Be  Be7       1.0  0.877  0.376  0.188  1.0000
  Be  Be8       1.0  0.12300000000000005  0.624  0.188  1.0000
  Si  Si1       1.0  0.1405  0.1639  0.0154  0.7310
  Si  Si2       1.0  0.8594999999999999  0.8361000000000001  0.0154  0.7310
  Si  Si3       1.0  0.1639  0.8594999999999999  0.9846  0.7310
  Si  Si4       1.0  0.8361000000000001  0.1405  0.9846  0.7310
  Si  Si5       1.0  0.6405000000000001  0.6638999999999998  0.5154  0.7310
  Si  Si6       1.0  0.3595  0.3361  0.5154  0.7310
  Si  Si7       1.0  0.6638999999999998  0.3595  0.4846  0.7310
  Si  Si8       1.0  0.3361  0.6405000000000001  0.4846  0.7310
  Si  Si9       1.0  0.16779999999999998  0.3602  0.7712  0.7600
  Si  Si10      1.0  0.8322  0.6397999999999999  0.7712  0.7600
  Si  Si11      1.0  0.3602  0.8322  0.22880000000000003  0.7600
  Si  Si12      1.0  0.6397999999999999  0.16779999999999998  0.22880000000000003  0.7600
  Si  Si13      1.0  0.6678  0.8602000000000001  0.2712  0.7600
  Si  Si14      1.0  0.33220000000000005  0.13979999999999998  0.2712  0.7600
  Si  Si15      1.0  0.8602000000000001  0.33220000000000005  0.7288000000000001  0.7600
  Si  Si16      1.0  0.13979999999999998  0.6678  0.7288000000000001  0.7600
  O   O25       1.0  0.9818999999999999  0.181  0.0503  1.0000
  O   O26       1.0  0.0181  0.819  0.0503  1.0000
  O   O27       1.0  0.181  0.0181  0.9497000000000001  1.0000
  O   O28       1.0  0.819  0.9818999999999999  0.9497000000000001  1.0000
  O   O29       1.0  0.4819  0.681  0.5503  1.0000
  O   O30       1.0  0.5181  0.319  0.5503  1.0000
  O   O31       1.0  0.681  0.5181  0.44970000000000004  1.0000
  O   O32       1.0  0.319  0.4819  0.44970000000000004  1.0000
  Be  Be9       1.0  0.1405  0.1639  0.0154  0.2690
  Be  Be10      1.0  0.8594999999999999  0.8361000000000001  0.0154  0.2690
  Be  Be11      1.0  0.1639  0.8594999999999999  0.9846  0.2690
  Be  Be12      1.0  0.8361000000000001  0.1405  0.9846  0.2690
  Be  Be13      1.0  0.6405000000000001  0.6638999999999998  0.5154  0.2690
  Be  Be14      1.0  0.3595  0.3361  0.5154  0.2690
  Be  Be15      1.0  0.6638999999999998  0.3595  0.4846  0.2690
  Be  Be16      1.0  0.3361  0.6405000000000001  0.4846  0.2690
  Be  Be17      1.0  0.16779999999999998  0.3602  0.7712  0.2400
  Be  Be18      1.0  0.8322  0.6397999999999999  0.7712  0.2400
  Be  Be19      1.0  0.3602  0.8322  0.22880000000000003  0.2400
  Be  Be20      1.0  0.6397999999999999  0.16779999999999998  0.22880000000000003  0.2400
  Be  Be21      1.0  0.6678  0.8602000000000001  0.2712  0.2400
  Be  Be22      1.0  0.33220000000000005  0.13979999999999998  0.2712  0.2400
  Be  Be23      1.0  0.8602000000000001  0.33220000000000005  0.7288000000000001  0.2400
  Be  Be24      1.0  0.13979999999999998  0.6678  0.7288000000000001  0.2400
