data_image0
_chemical_formula_structural       Ca3Na3Al3F18
_chemical_formula_sum              "Ca3 Na3 Al3 F18"
_cell_length_a       8.9295
_cell_length_b       8.9295
_cell_length_c       5.0642
_cell_angle_alpha    90.0
_cell_angle_beta     90.0
_cell_angle_gamma    119.99999999999999

_space_group_name_H-M_alt    "P 1"
_space_group_IT_number       1

loop_
  _space_group_symop_operation_xyz
  'x, y, z'

loop_
  _atom_site_type_symbol
  _atom_site_label
  _atom_site_symmetry_multiplicity
  _atom_site_fract_x
  _atom_site_fract_y
  _atom_site_fract_z
  _atom_site_occupancy
  Ca  Ca1       1.0  0.372  0.0  0.0  1.0000
  Ca  Ca2       1.0  0.0  0.372  0.0  1.0000
  Ca  Ca3       1.0  0.628  0.628  0.0  1.0000
  Na  Na1       1.0  0.7145  0.0  0.5  1.0000
  Na  Na2       1.0  1.7759415703591785e-17  0.7145  0.5  1.0000
  Na  Na3       1.0  0.2855  0.2855  0.5  1.0000
  Al  Al1       1.0  0.0  0.0  0.0  1.0000
  Al  Al2       1.0  0.3333  0.6667  0.499  1.0000
  Al  Al3       1.0  0.6667  0.3333  0.501  1.0000
  F   F1        1.0  0.9135999999999999  0.10409999999999997  0.796  1.0000
  F   F2        1.0  0.8959  0.8094999999999999  0.796  1.0000
  F   F3        1.0  0.1905000000000001  0.08640000000000014  0.796  1.0000
  F   F4        1.0  0.1041  0.9135999999999999  0.204  1.0000
  F   F5        1.0  0.08640000000000014  0.1905000000000001  0.204  1.0000
  F   F6        1.0  0.8094999999999999  0.8959  0.204  1.0000
  F   F7        1.0  0.5541  0.4101  0.703  1.0000
  F   F8        1.0  0.5899  0.14400000000000002  0.703  1.0000
  F   F9        1.0  0.856  0.44589999999999996  0.703  1.0000
  F   F10       1.0  0.4101  0.5541  0.29700000000000004  1.0000
  F   F11       1.0  0.44589999999999996  0.856  0.29700000000000004  1.0000
  F   F12       1.0  0.14400000000000002  0.5899  0.29700000000000004  1.0000
  F   F13       1.0  0.2517  0.7771  0.703  1.0000
  F   F14       1.0  0.2229  0.4745999999999999  0.703  1.0000
  F   F15       1.0  0.5254000000000001  0.7483  0.703  1.0000
  F   F16       1.0  0.7771  0.2517  0.29700000000000004  1.0000
  F   F17       1.0  0.7483  0.5254000000000001  0.29700000000000004  1.0000
  F   F18       1.0  0.47459999999999986  0.2229  0.29700000000000004  1.0000
