data_image0
_chemical_formula_structural       Mo24S28K10
_chemical_formula_sum              "Mo24 S28 K10"
_cell_length_a       9.1476
_cell_length_b       9.1476
_cell_length_c       16.421
_cell_angle_alpha    90.0
_cell_angle_beta     90.0
_cell_angle_gamma    119.99999999999999

_space_group_name_H-M_alt    "P 1"
_space_group_IT_number       1

loop_
  _space_group_symop_operation_xyz
  'x, y, z'

loop_
  _atom_site_type_symbol
  _atom_site_label
  _atom_site_symmetry_multiplicity
  _atom_site_fract_x
  _atom_site_fract_y
  _atom_site_fract_z
  _atom_site_occupancy
  Mo  Mo1       1.0  0.15915999999999988  0.5053099999999998  0.543433  1.0000
  Mo  Mo2       1.0  0.4946899999999999  0.6538499999999999  0.543433  1.0000
  Mo  Mo3       1.0  0.5053099999999999  0.15915999999999994  0.043433000000000055  1.0000
  Mo  Mo4       1.0  0.3461499999999999  0.8408399999999999  0.543433  1.0000
  Mo  Mo5       1.0  0.8408399999999999  0.3461499999999999  0.043433000000000055  1.0000
  Mo  Mo6       1.0  0.65385  0.49469  0.043433000000000055  1.0000
  Mo  Mo7       1.0  0.8408399999999999  0.49469  0.45656699999999995  1.0000
  Mo  Mo8       1.0  0.5053099999999999  0.3461499999999999  0.45656699999999995  1.0000
  Mo  Mo9       1.0  0.4946899999999999  0.8408399999999999  0.956567  1.0000
  Mo  Mo10      1.0  0.65385  0.15915999999999994  0.45656699999999995  1.0000
  Mo  Mo11      1.0  0.15915999999999986  0.6538499999999999  0.956567  1.0000
  Mo  Mo12      1.0  0.3461499999999999  0.5053099999999998  0.956567  1.0000
  Mo  Mo13      1.0  0.33122999999999997  0.4963299999999999  0.683973  1.0000
  Mo  Mo14      1.0  0.5036700000000001  0.8349  0.683973  1.0000
  Mo  Mo15      1.0  0.4963299999999999  0.33122999999999997  0.18397299999999994  1.0000
  Mo  Mo16      1.0  0.16509999999999989  0.66877  0.683973  1.0000
  Mo  Mo17      1.0  0.6687700000000001  0.16509999999999994  0.18397299999999994  1.0000
  Mo  Mo18      1.0  0.8348999999999999  0.5036700000000001  0.18397299999999994  1.0000
  Mo  Mo19      1.0  0.6687700000000001  0.5036700000000001  0.31602699999999995  1.0000
  Mo  Mo20      1.0  0.4963299999999999  0.16509999999999994  0.31602699999999995  1.0000
  Mo  Mo21      1.0  0.50367  0.66877  0.816027  1.0000
  Mo  Mo22      1.0  0.8348999999999999  0.33122999999999997  0.31602699999999995  1.0000
  Mo  Mo23      1.0  0.33122999999999997  0.8349  0.816027  1.0000
  Mo  Mo24      1.0  0.16509999999999994  0.4963299999999999  0.816027  1.0000
  S   S1        1.0  0.03892999999999999  0.69356  0.5577099999999999  1.0000
  S   S2        1.0  0.30644  0.34537000000000007  0.5577099999999999  1.0000
  S   S3        1.0  0.69356  0.038929999999999985  0.05770999999999993  1.0000
  S   S4        1.0  0.6546299999999998  0.9610699999999999  0.5577099999999999  1.0000
  S   S5        1.0  0.9610699999999999  0.6546299999999998  0.05770999999999993  1.0000
  S   S6        1.0  0.34537  0.30644  0.05770999999999993  1.0000
  S   S7        1.0  0.9610699999999999  0.30644  0.44229  1.0000
  S   S8        1.0  0.69356  0.6546299999999998  0.44229  1.0000
  S   S9        1.0  0.30644  0.9610699999999999  0.9422900000000001  1.0000
  S   S10       1.0  0.34537000000000007  0.038929999999999985  0.44229  1.0000
  S   S11       1.0  0.03893  0.34537000000000007  0.9422900000000001  1.0000
  S   S12       1.0  0.6546299999999999  0.69356  0.9422900000000001  1.0000
  S   S13       1.0  0.018589999999999985  0.35711  0.6808899999999998  1.0000
  S   S14       1.0  0.6428899999999999  0.66148  0.6808899999999998  1.0000
  S   S15       1.0  0.35711  0.01858999999999998  0.18088999999999975  1.0000
  S   S16       1.0  0.33851999999999993  0.9814099999999999  0.6808899999999998  1.0000
  S   S17       1.0  0.98141  0.33851999999999993  0.18088999999999975  1.0000
  S   S18       1.0  0.66148  0.64289  0.18088999999999975  1.0000
  S   S19       1.0  0.98141  0.64289  0.3191100000000001  1.0000
  S   S20       1.0  0.35711  0.33851999999999993  0.3191100000000001  1.0000
  S   S21       1.0  0.64289  0.9814099999999999  0.8191100000000001  1.0000
  S   S22       1.0  0.66148  0.01858999999999998  0.3191100000000001  1.0000
  S   S23       1.0  0.018589999999999943  0.66148  0.8191100000000001  1.0000
  S   S24       1.0  0.33852  0.35711  0.8191100000000001  1.0000
  S   S25       1.0  0.3332999999999998  0.6666999999999997  0.43220999999999987  1.0000
  S   S26       1.0  0.6666999999999998  0.3332999999999999  0.93221  1.0000
  S   S27       1.0  0.6667000000000001  0.33330000000000015  0.56779  1.0000
  S   S28       1.0  0.3333000000000001  0.6667  0.06779000000000007  1.0000
  K   K1        1.0  0.3332999999999998  0.6666999999999997  0.25  1.0000
  K   K2        1.0  0.6666999999999998  0.3332999999999999  0.75  1.0000
  K   K3        1.0  0.0  0.0  0.0  0.0310
  K   K4        1.0  0.0  0.0  0.5  0.0310
  K   K5        1.0  0.0  0.0  0.17499999999999993  0.2700
  K   K6        1.0  0.0  0.0  0.6749999999999999  0.2700
  K   K7        1.0  0.0  0.0  0.8250000000000001  0.2700
  K   K8        1.0  0.0  0.0  0.32500000000000007  0.2700
  K   K9        1.0  0.0  0.0  0.25  0.5500
  K   K10       1.0  0.0  0.0  0.75  0.5500
