data_image0
_chemical_formula_structural       La8S8O8
_chemical_formula_sum              "La8 S8 O8"
_cell_length_a       13.215
_cell_length_b       5.943
_cell_length_c       5.938
_cell_angle_alpha    90.0
_cell_angle_beta     90.0
_cell_angle_gamma    90.0

_space_group_name_H-M_alt    "P 1"
_space_group_IT_number       1

loop_
  _space_group_symop_operation_xyz
  'x, y, z'

loop_
  _atom_site_type_symbol
  _atom_site_label
  _atom_site_symmetry_multiplicity
  _atom_site_fract_x
  _atom_site_fract_y
  _atom_site_fract_z
  _atom_site_occupancy
  La  La1       1.0  0.33920000000000006  0.0  0.0  1.0000
  La  La2       1.0  0.33920000000000006  0.5  0.5  1.0000
  La  La3       1.0  0.6607999999999999  0.0  0.0  1.0000
  La  La4       1.0  0.6607999999999999  0.5  0.5  1.0000
  La  La5       1.0  0.8392000000000001  0.5  0.0  1.0000
  La  La6       1.0  0.8392000000000001  0.0  0.5  1.0000
  La  La7       1.0  0.16079999999999994  0.5  0.0  1.0000
  La  La8       1.0  0.16079999999999994  0.0  0.5  1.0000
  S   S1        1.0  0.0  0.37500000000000006  0.37470000000000003  1.0000
  S   S2        1.0  0.0  0.625  0.6253  1.0000
  S   S3        1.0  0.0  0.12499999999999994  0.8747  1.0000
  S   S4        1.0  0.0  0.875  0.12529999999999997  1.0000
  S   S5        1.0  0.5  0.875  0.37470000000000003  1.0000
  S   S6        1.0  0.5  0.12499999999999994  0.6253  1.0000
  S   S7        1.0  0.5  0.625  0.8747  1.0000
  S   S8        1.0  0.5  0.37500000000000006  0.12529999999999997  1.0000
  O   O1        1.0  0.25  0.2446  0.25  1.0000
  O   O2        1.0  0.25  0.7554  0.7500000000000001  1.0000
  O   O3        1.0  0.25  0.25539999999999996  0.7500000000000001  1.0000
  O   O4        1.0  0.25  0.7446  0.25  1.0000
  O   O5        1.0  0.75  0.7554  0.7500000000000001  1.0000
  O   O6        1.0  0.75  0.2446  0.25  1.0000
  O   O7        1.0  0.75  0.7446  0.25  1.0000
  O   O8        1.0  0.75  0.25539999999999996  0.7500000000000001  1.0000
