data_image0
_chemical_formula_structural       N12O24
_chemical_formula_sum              "N12 O24"
_cell_length_a       7.77
_cell_length_b       7.77
_cell_length_c       7.77
_cell_angle_alpha    90.0
_cell_angle_beta     90.0
_cell_angle_gamma    90.0

_space_group_name_H-M_alt    "P 1"
_space_group_IT_number       1

loop_
  _space_group_symop_operation_xyz
  'x, y, z'

loop_
  _atom_site_type_symbol
  _atom_site_label
  _atom_site_symmetry_multiplicity
  _atom_site_fract_x
  _atom_site_fract_y
  _atom_site_fract_z
  _atom_site_occupancy
  N   N1        1.0  0.403  0.0  0.25  1.0000
  N   N2        1.0  0.0  0.25  0.403  1.0000
  N   N3        1.0  0.25  0.403  0.0  1.0000
  N   N4        1.0  0.903  0.5  0.75  1.0000
  N   N5        1.0  0.5  0.25  0.597  1.0000
  N   N6        1.0  0.75  0.09699999999999998  0.0  1.0000
  N   N7        1.0  0.597  0.5  0.25  1.0000
  N   N8        1.0  0.0  0.75  0.09699999999999998  1.0000
  N   N9        1.0  0.75  0.903  0.5  1.0000
  N   N10       1.0  0.09699999999999998  0.0  0.75  1.0000
  N   N11       1.0  0.5  0.75  0.903  1.0000
  N   N12       1.0  0.25  0.597  0.5  1.0000
  O   O1        1.0  0.178  0.25  0.403  1.0000
  O   O2        1.0  0.25  0.403  0.178  1.0000
  O   O3        1.0  0.403  0.178  0.25  1.0000
  O   O4        1.0  0.6779999999999999  0.25  0.597  1.0000
  O   O5        1.0  0.75  0.09699999999999998  0.8220000000000001  1.0000
  O   O6        1.0  0.903  0.322  0.75  1.0000
  O   O7        1.0  0.8220000000000001  0.75  0.09699999999999998  1.0000
  O   O8        1.0  0.75  0.903  0.322  1.0000
  O   O9        1.0  0.597  0.6779999999999999  0.25  1.0000
  O   O10       1.0  0.322  0.75  0.903  1.0000
  O   O11       1.0  0.25  0.597  0.6779999999999999  1.0000
  O   O12       1.0  0.09699999999999998  0.8220000000000001  0.75  1.0000
  O   O13       1.0  0.6779999999999999  0.75  0.903  1.0000
  O   O14       1.0  0.75  0.903  0.6779999999999999  1.0000
  O   O15       1.0  0.903  0.6779999999999999  0.75  1.0000
  O   O16       1.0  0.178  0.75  0.09699999999999998  1.0000
  O   O17       1.0  0.25  0.597  0.322  1.0000
  O   O18       1.0  0.403  0.8220000000000001  0.25  1.0000
  O   O19       1.0  0.322  0.25  0.597  1.0000
  O   O20       1.0  0.25  0.403  0.8220000000000001  1.0000
  O   O21       1.0  0.09699999999999998  0.178  0.75  1.0000
  O   O22       1.0  0.8220000000000001  0.25  0.403  1.0000
  O   O23       1.0  0.75  0.09699999999999998  0.178  1.0000
  O   O24       1.0  0.597  0.322  0.25  1.0000
