data_image0
_chemical_formula_structural       Si24O48
_chemical_formula_sum              "Si24 O48"
_cell_length_a       10.336
_cell_length_b       15.0177
_cell_length_c       8.8639
_cell_angle_alpha    90.0
_cell_angle_beta     105.35599999999998
_cell_angle_gamma    90.0

_space_group_name_H-M_alt    "P 1"
_space_group_IT_number       1

loop_
  _space_group_symop_operation_xyz
  'x, y, z'

loop_
  _atom_site_type_symbol
  _atom_site_label
  _atom_site_symmetry_multiplicity
  _atom_site_fract_x
  _atom_site_fract_y
  _atom_site_fract_z
  _atom_site_occupancy
  Si  Si1       1.0  0.65198  0.24673999999999993  0.10904000000000003  1.0000
  Si  Si2       1.0  0.65198  0.75326  0.10904000000000003  1.0000
  Si  Si3       1.0  0.15198  0.7467399999999998  0.10904000000000003  1.0000
  Si  Si4       1.0  0.15198  0.25326  0.10904000000000003  1.0000
  Si  Si5       1.0  0.69266  0.3957999999999999  0.67304  1.0000
  Si  Si6       1.0  0.69266  0.6042000000000001  0.67304  1.0000
  Si  Si7       1.0  0.19266000000000003  0.8957999999999998  0.67304  1.0000
  Si  Si8       1.0  0.19266000000000003  0.10420000000000006  0.67304  1.0000
  Si  Si9       1.0  0.5994599999999999  0.3954499999999999  0.31764  1.0000
  Si  Si10      1.0  0.5994599999999999  0.60455  0.31764  1.0000
  Si  Si11      1.0  0.09945999999999988  0.8954499999999999  0.31764  1.0000
  Si  Si12      1.0  0.09945999999999988  0.10455000000000002  0.31764  1.0000
  Si  Si13      1.0  0.35308999999999996  0.24165999999999996  0.89294  1.0000
  Si  Si14      1.0  0.35308999999999996  0.7583399999999999  0.89294  1.0000
  Si  Si15      1.0  0.85309  0.7416599999999999  0.89294  1.0000
  Si  Si16      1.0  0.85309  0.25834  0.89294  1.0000
  Si  Si17      1.0  0.30084  0.40252999999999994  0.33573000000000003  1.0000
  Si  Si18      1.0  0.30084  0.5974700000000001  0.33573000000000003  1.0000
  Si  Si19      1.0  0.8008399999999999  0.9025299999999998  0.33573000000000003  1.0000
  Si  Si20      1.0  0.8008399999999999  0.09747000000000004  0.33573000000000003  1.0000
  Si  Si21      1.0  0.40031  0.40255999999999986  0.7010100000000001  1.0000
  Si  Si22      1.0  0.40031  0.59744  0.7010100000000001  1.0000
  Si  Si23      1.0  0.90031  0.9025599999999998  0.7010100000000001  1.0000
  Si  Si24      1.0  0.90031  0.09744000000000008  0.7010100000000001  1.0000
  O   O1        1.0  0.64579  0.34354  0.18221  1.0000
  O   O2        1.0  0.64579  0.65646  0.18221  1.0000
  O   O3        1.0  0.14578999999999986  0.8435399999999998  0.18221  1.0000
  O   O4        1.0  0.14578999999999986  0.15646  0.18221  1.0000
  O   O5        1.0  0.44155  0.3766099999999999  0.29774  1.0000
  O   O6        1.0  0.44155  0.6233900000000001  0.29774  1.0000
  O   O7        1.0  0.9415499999999999  0.8766099999999998  0.29774  1.0000
  O   O8        1.0  0.9415499999999999  0.12339000000000004  0.29774  1.0000
  O   O9        1.0  0.6802  0.3687899999999999  0.49357  1.0000
  O   O10       1.0  0.6802  0.6312099999999999  0.49357  1.0000
  O   O11       1.0  0.1802000000000001  0.86879  0.49357  1.0000
  O   O12       1.0  0.1802000000000001  0.13121000000000005  0.49357  1.0000
  O   O13       1.0  0.75019  0.26829  0.99982  1.0000
  O   O14       1.0  0.75019  0.7317100000000001  0.99982  1.0000
  O   O15       1.0  0.2501899999999999  0.7682899999999998  0.99982  1.0000
  O   O16       1.0  0.2501899999999999  0.23171  0.99982  1.0000
  O   O17       1.0  0.72703  0.4999999999999999  0.69151  1.0000
  O   O18       1.0  0.22703000000000004  0.0  0.69151  1.0000
  O   O19       1.0  0.50337  0.22413999999999995  0.00118  1.0000
  O   O20       1.0  0.50337  0.77586  0.00118  1.0000
  O   O21       1.0  0.0033699999999998727  0.7241399999999999  0.00118  1.0000
  O   O22       1.0  0.0033699999999998727  0.27585999999999994  0.00118  1.0000
  O   O23       1.0  0.8147999999999999  0.3346599999999999  0.7629  1.0000
  O   O24       1.0  0.8147999999999999  0.6653399999999999  0.7629  1.0000
  O   O25       1.0  0.31479999999999997  0.8346599999999998  0.7629  1.0000
  O   O26       1.0  0.31479999999999997  0.16534000000000001  0.7629  1.0000
  O   O27       1.0  0.61794  0.4999999999999999  0.2923  1.0000
  O   O28       1.0  0.11793999999999993  0.0  0.2923  1.0000
  O   O29       1.0  0.19746000000000008  0.3418199999999999  0.21114  1.0000
  O   O30       1.0  0.19746000000000008  0.6581799999999999  0.21114  1.0000
  O   O31       1.0  0.6974600000000001  0.84182  0.21114  1.0000
  O   O32       1.0  0.6974600000000001  0.15818000000000004  0.21114  1.0000
  O   O33       1.0  0.37931999999999994  0.4999999999999999  0.76214  1.0000
  O   O34       1.0  0.87932  0.0  0.76214  1.0000
  O   O35       1.0  0.3335500000000001  0.32716  0.7825300000000001  1.0000
  O   O36       1.0  0.3335500000000001  0.6728399999999999  0.7825300000000001  1.0000
  O   O37       1.0  0.83355  0.8271599999999999  0.7825300000000001  1.0000
  O   O38       1.0  0.83355  0.17284  0.7825300000000001  1.0000
  O   O39       1.0  0.55972  0.38572  0.7356400000000001  1.0000
  O   O40       1.0  0.55972  0.6142799999999999  0.7356400000000001  1.0000
  O   O41       1.0  0.05972000000000005  0.88572  0.7356400000000001  1.0000
  O   O42       1.0  0.05972000000000005  0.11427999999999998  0.7356400000000001  1.0000
  O   O43       1.0  0.31897000000000003  0.3875099999999999  0.52085  1.0000
  O   O44       1.0  0.31897000000000003  0.61249  0.52085  1.0000
  O   O45       1.0  0.81897  0.8875099999999999  0.52085  1.0000
  O   O46       1.0  0.81897  0.11249000000000002  0.52085  1.0000
  O   O47       1.0  0.25216000000000005  0.4999999999999999  0.2707599999999999  1.0000
  O   O48       1.0  0.75216  0.0  0.2707599999999999  1.0000
