data_image0
_chemical_formula_structural       Nb10Rb10O60B20
_chemical_formula_sum              "Nb10 Rb10 O60 B20"
_cell_length_a       19.64
_cell_length_b       9.449
_cell_length_c       7.389
_cell_angle_alpha    90.0
_cell_angle_beta     90.0
_cell_angle_gamma    90.0

_space_group_name_H-M_alt    "P 1"
_space_group_IT_number       1

loop_
  _space_group_symop_operation_xyz
  'x, y, z'

loop_
  _atom_site_type_symbol
  _atom_site_label
  _atom_site_symmetry_multiplicity
  _atom_site_fract_x
  _atom_site_fract_y
  _atom_site_fract_z
  _atom_site_occupancy
  Nb  Nb1       1.0  0.0669  0.0  0.0  1.0000
  Nb  Nb2       1.0  0.9331  0.5  0.49999999999999994  1.0000
  Nb  Nb3       1.0  0.2659  0.9986  0.9982999999999999  1.0000
  Nb  Nb4       1.0  0.7341  0.49860000000000004  0.49829999999999997  1.0000
  Nb  Nb5       1.0  0.4654  0.9982999999999999  0.9859999999999999  1.0000
  Nb  Nb6       1.0  0.5346  0.4983  0.486  1.0000
  Nb  Nb7       1.0  0.6656999999999998  0.9991  0.013099999999999997  1.0000
  Nb  Nb8       1.0  0.33430000000000015  0.49910000000000004  0.5131  1.0000
  Nb  Nb9       1.0  0.8666  0.9994999999999999  0.9767  1.0000
  Nb  Nb10      1.0  0.13339999999999996  0.4995  0.47669999999999996  1.0000
  Rb  Rb1       1.0  0.007  0.6023  0.9987999999999999  1.0000
  Rb  Rb2       1.0  0.993  0.10230000000000006  0.49879999999999997  1.0000
  Rb  Rb3       1.0  0.2053  0.6043  0.9954999999999999  1.0000
  Rb  Rb4       1.0  0.7947  0.10429999999999984  0.4955  1.0000
  Rb  Rb5       1.0  0.40679999999999994  0.603  0.9887  1.0000
  Rb  Rb6       1.0  0.5932  0.10299999999999998  0.48869999999999997  1.0000
  Rb  Rb7       1.0  0.6087  0.6006  0.0073999999999999995  1.0000
  Rb  Rb8       1.0  0.3913  0.10060000000000002  0.5074  1.0000
  Rb  Rb9       1.0  0.8093  0.5982  0.9852999999999998  1.0000
  Rb  Rb10      1.0  0.19069999999999998  0.09819999999999984  0.48529999999999995  1.0000
  O   O1        1.0  0.0717  0.1732  0.16039999999999993  1.0000
  O   O2        1.0  0.9283  0.6732  0.6603999999999999  1.0000
  O   O3        1.0  0.2968  0.1469  0.19649999999999995  1.0000
  O   O4        1.0  0.7032  0.6469  0.6965  1.0000
  O   O5        1.0  0.4694  0.1569  0.15889999999999996  1.0000
  O   O6        1.0  0.5306  0.6569  0.6589  1.0000
  O   O7        1.0  0.6826  0.1584  0.18259999999999996  1.0000
  O   O8        1.0  0.3174  0.6584  0.6826  1.0000
  O   O9        1.0  0.8798  0.1329  0.1748  1.0000
  O   O10       1.0  0.12019999999999996  0.6329  0.6748  1.0000
  O   O11       1.0  0.0868  0.1338  0.7977  1.0000
  O   O12       1.0  0.9132  0.6338  0.29769999999999996  1.0000
  O   O13       1.0  0.2682  0.1651  0.8369  1.0000
  O   O14       1.0  0.7318  0.6651  0.3369  1.0000
  O   O15       1.0  0.4905  0.1511  0.8065999999999999  1.0000
  O   O16       1.0  0.5095000000000001  0.6511  0.3066  1.0000
  O   O17       1.0  0.6692  0.1557  0.8186999999999999  1.0000
  O   O18       1.0  0.3308  0.6557  0.3187  1.0000
  O   O19       1.0  0.8778  0.1631  0.817  1.0000
  O   O20       1.0  0.12219999999999998  0.6631  0.317  1.0000
  O   O21       1.0  0.0632  0.8777999999999999  0.2169  1.0000
  O   O22       1.0  0.9367999999999999  0.3778  0.7169  1.0000
  O   O23       1.0  0.292  0.8483  0.16419999999999996  1.0000
  O   O24       1.0  0.708  0.3483  0.6641999999999999  1.0000
  O   O25       1.0  0.4624  0.8622000000000001  0.17869999999999997  1.0000
  O   O26       1.0  0.5376000000000001  0.36219999999999997  0.6787  1.0000
  O   O27       1.0  0.6826  0.8699  0.21379999999999993  1.0000
  O   O28       1.0  0.3174  0.3699  0.7137999999999999  1.0000
  O   O29       1.0  0.879  0.8359  0.1513  1.0000
  O   O30       1.0  0.121  0.3359  0.6512999999999999  1.0000
  O   O31       1.0  0.0893  0.8401000000000001  0.8386999999999999  1.0000
  O   O32       1.0  0.9106999999999998  0.3401  0.33869999999999995  1.0000
  O   O33       1.0  0.262  0.8666  0.7878  1.0000
  O   O34       1.0  0.738  0.36660000000000004  0.28780000000000006  1.0000
  O   O35       1.0  0.4930999999999999  0.8631  0.807  1.0000
  O   O36       1.0  0.5069000000000001  0.3631  0.307  1.0000
  O   O37       1.0  0.6667999999999998  0.8578999999999999  0.8223  1.0000
  O   O38       1.0  0.33320000000000016  0.3579  0.32230000000000003  1.0000
  O   O39       1.0  0.8701999999999999  0.8667  0.7721999999999999  1.0000
  O   O40       1.0  0.12980000000000014  0.3667  0.27219999999999994  1.0000
  O   O41       1.0  0.1792  0.9912999999999998  0.05149999999999998  1.0000
  O   O42       1.0  0.8208  0.49129999999999996  0.5514999999999999  1.0000
  O   O43       1.0  0.37449999999999994  0.9946  0.9344999999999999  1.0000
  O   O44       1.0  0.6255000000000001  0.4946  0.43449999999999994  1.0000
  O   O45       1.0  0.5741  0.0205  0.04489999999999999  1.0000
  O   O46       1.0  0.42589999999999995  0.5205  0.5448999999999999  1.0000
  O   O47       1.0  0.7819999999999999  0.01  0.9591  1.0000
  O   O48       1.0  0.21800000000000005  0.51  0.45909999999999995  1.0000
  O   O49       1.0  0.9812  0.0011  0.9642  1.0000
  O   O50       1.0  0.01880000000000004  0.5011  0.46419999999999995  1.0000
  O   O51       1.0  0.1122  0.3453  0.9658999999999999  1.0000
  O   O52       1.0  0.8878  0.8452999999999999  0.4659  1.0000
  O   O53       1.0  0.31059999999999993  0.3507  0.0172  1.0000
  O   O54       1.0  0.6893999999999999  0.8507  0.5172  1.0000
  O   O55       1.0  0.5046  0.3549  0.9808999999999999  1.0000
  O   O56       1.0  0.4953999999999999  0.8549000000000001  0.48089999999999994  1.0000
  O   O57       1.0  0.7091  0.3564  0.9679999999999999  1.0000
  O   O58       1.0  0.29090000000000005  0.8564  0.4679999999999999  1.0000
  O   O59       1.0  0.9164  0.359  0.0171  1.0000
  O   O60       1.0  0.08360000000000001  0.859  0.5170999999999999  1.0000
  B   B1        1.0  0.09609999999999999  0.794  0.3498999999999999  1.0000
  B   B2        1.0  0.9038999999999999  0.29400000000000004  0.8498999999999999  1.0000
  B   B3        1.0  0.3068  0.7771  0.3200999999999999  1.0000
  B   B4        1.0  0.6932  0.2770999999999999  0.8200999999999999  1.0000
  B   B5        1.0  0.4905  0.7871  0.3158  1.0000
  B   B6        1.0  0.5095000000000001  0.28710000000000013  0.8158  1.0000
  B   B7        1.0  0.7005  0.7896  0.3543  1.0000
  B   B8        1.0  0.2995  0.2896000000000001  0.8543  1.0000
  B   B9        1.0  0.8921  0.7767  0.3012999999999999  1.0000
  B   B10       1.0  0.10789999999999998  0.27669999999999995  0.8012999999999999  1.0000
  B   B11       1.0  0.1011  0.7811  0.6718999999999999  1.0000
  B   B12       1.0  0.8989  0.2810999999999999  0.17189999999999997  1.0000
  B   B13       1.0  0.2924  0.7952  0.6456999999999999  1.0000
  B   B14       1.0  0.7075999999999999  0.2951999999999999  0.1457  1.0000
  B   B15       1.0  0.5041  0.7916  0.6508999999999999  1.0000
  B   B16       1.0  0.49589999999999995  0.29159999999999986  0.1509  1.0000
  B   B17       1.0  0.6892  0.781  0.6924999999999999  1.0000
  B   B18       1.0  0.31079999999999997  0.28100000000000014  0.19249999999999998  1.0000
  B   B19       1.0  0.8986999999999999  0.7906  0.6312  1.0000
  B   B20       1.0  0.10130000000000006  0.29059999999999997  0.13120000000000004  1.0000
