data_image0
_chemical_formula_structural       Zn32Ga128Se264
_chemical_formula_sum              "Zn32 Ga128 Se264"
_cell_length_a       42.093
_cell_length_b       42.093
_cell_length_c       16.69
_cell_angle_alpha    90.0
_cell_angle_beta     90.0
_cell_angle_gamma    90.0

_space_group_name_H-M_alt    "P 1"
_space_group_IT_number       1

loop_
  _space_group_symop_operation_xyz
  'x, y, z'

loop_
  _atom_site_type_symbol
  _atom_site_label
  _atom_site_symmetry_multiplicity
  _atom_site_fract_x
  _atom_site_fract_y
  _atom_site_fract_z
  _atom_site_occupancy
  Zn  Zn1       1.0  0.5900399999999999  0.76673  0.23219999999999996  1.0000
  Zn  Zn2       1.0  0.4099600000000001  0.23326999999999998  0.23219999999999996  1.0000
  Zn  Zn3       1.0  0.76673  0.4099600000000001  0.7678  1.0000
  Zn  Zn4       1.0  0.23326999999999998  0.5900399999999999  0.7678  1.0000
  Zn  Zn5       1.0  0.9099600000000001  0.76673  0.5178  1.0000
  Zn  Zn6       1.0  0.0900399999999999  0.23326999999999998  0.5178  1.0000
  Zn  Zn7       1.0  0.73327  0.4099600000000001  0.9822  1.0000
  Zn  Zn8       1.0  0.26672999999999997  0.5900399999999999  0.9822  1.0000
  Zn  Zn9       1.0  0.0900399999999999  0.26672999999999997  0.7322  1.0000
  Zn  Zn10      1.0  0.9099600000000001  0.73327  0.7322  1.0000
  Zn  Zn11      1.0  0.26672999999999997  0.9099600000000001  0.26780000000000004  1.0000
  Zn  Zn12      1.0  0.73327  0.0900399999999999  0.26780000000000004  1.0000
  Zn  Zn13      1.0  0.4099600000000001  0.26672999999999997  0.017800000000000038  1.0000
  Zn  Zn14      1.0  0.5900399999999999  0.73327  0.017800000000000038  1.0000
  Zn  Zn15      1.0  0.23326999999999998  0.9099600000000001  0.4821999999999999  1.0000
  Zn  Zn16      1.0  0.76673  0.0900399999999999  0.4821999999999999  1.0000
  Zn  Zn17      1.0  0.5244  0.7071000000000001  0.16810000000000014  1.0000
  Zn  Zn18      1.0  0.47559999999999997  0.2929  0.16810000000000014  1.0000
  Zn  Zn19      1.0  0.7071000000000001  0.47559999999999997  0.8318999999999998  1.0000
  Zn  Zn20      1.0  0.2929  0.5244  0.8318999999999998  1.0000
  Zn  Zn21      1.0  0.9755999999999999  0.7071000000000001  0.5818999999999999  1.0000
  Zn  Zn22      1.0  0.024399999999999977  0.2929  0.5818999999999999  1.0000
  Zn  Zn23      1.0  0.7928999999999998  0.47559999999999997  0.9181  1.0000
  Zn  Zn24      1.0  0.20709999999999998  0.5244  0.9181  1.0000
  Zn  Zn25      1.0  0.024399999999999977  0.20709999999999998  0.6681000000000001  1.0000
  Zn  Zn26      1.0  0.9755999999999999  0.7928999999999998  0.6681000000000001  1.0000
  Zn  Zn27      1.0  0.20709999999999998  0.9755999999999999  0.33189999999999986  1.0000
  Zn  Zn28      1.0  0.7928999999999998  0.024399999999999977  0.33189999999999986  1.0000
  Zn  Zn29      1.0  0.47559999999999997  0.20709999999999998  0.08189999999999986  1.0000
  Zn  Zn30      1.0  0.5244  0.7928999999999998  0.08189999999999986  1.0000
  Zn  Zn31      1.0  0.2929  0.9755999999999999  0.4181000000000001  1.0000
  Zn  Zn32      1.0  0.7071000000000001  0.024399999999999977  0.4181000000000001  1.0000
  Ga  Ga1       1.0  0.6558  0.6208400000000001  0.2582  1.0000
  Ga  Ga2       1.0  0.34419999999999995  0.37915999999999994  0.2582  1.0000
  Ga  Ga3       1.0  0.6208400000000001  0.34419999999999995  0.7418  1.0000
  Ga  Ga4       1.0  0.37915999999999994  0.6558  0.7418  1.0000
  Ga  Ga5       1.0  0.8442  0.6208400000000001  0.49179999999999996  1.0000
  Ga  Ga6       1.0  0.15580000000000016  0.37915999999999994  0.49179999999999996  1.0000
  Ga  Ga7       1.0  0.8791599999999999  0.34419999999999995  0.008199999999999985  1.0000
  Ga  Ga8       1.0  0.12084000000000004  0.6558  0.008199999999999985  1.0000
  Ga  Ga9       1.0  0.15580000000000016  0.12084000000000004  0.7581999999999999  1.0000
  Ga  Ga10      1.0  0.8442  0.8791599999999999  0.7581999999999999  1.0000
  Ga  Ga11      1.0  0.12084000000000004  0.8442  0.2418  1.0000
  Ga  Ga12      1.0  0.8791599999999999  0.15580000000000016  0.2418  1.0000
  Ga  Ga13      1.0  0.34419999999999995  0.12084000000000004  0.9917999999999999  1.0000
  Ga  Ga14      1.0  0.6558  0.8791599999999999  0.9917999999999999  1.0000
  Ga  Ga15      1.0  0.37915999999999994  0.8442  0.5082  1.0000
  Ga  Ga16      1.0  0.6208400000000001  0.15580000000000016  0.5082  1.0000
  Ga  Ga17      1.0  0.591  0.6810700000000001  0.32720000000000005  1.0000
  Ga  Ga18      1.0  0.40900000000000003  0.31893  0.32720000000000005  1.0000
  Ga  Ga19      1.0  0.6810700000000001  0.40900000000000003  0.6728  1.0000
  Ga  Ga20      1.0  0.31893  0.591  0.6728  1.0000
  Ga  Ga21      1.0  0.9089999999999999  0.6810700000000001  0.42280000000000006  1.0000
  Ga  Ga22      1.0  0.09099999999999997  0.31893  0.42280000000000006  1.0000
  Ga  Ga23      1.0  0.8189299999999999  0.40900000000000003  0.07720000000000005  1.0000
  Ga  Ga24      1.0  0.18107  0.591  0.07720000000000005  1.0000
  Ga  Ga25      1.0  0.09099999999999997  0.18107  0.8272  1.0000
  Ga  Ga26      1.0  0.9089999999999999  0.8189299999999999  0.8272  1.0000
  Ga  Ga27      1.0  0.18107  0.9089999999999999  0.17280000000000006  1.0000
  Ga  Ga28      1.0  0.8189299999999999  0.09099999999999997  0.17280000000000006  1.0000
  Ga  Ga29      1.0  0.40900000000000003  0.18107  0.9227999999999998  1.0000
  Ga  Ga30      1.0  0.591  0.8189299999999999  0.9227999999999998  1.0000
  Ga  Ga31      1.0  0.31893  0.9089999999999999  0.5772  1.0000
  Ga  Ga32      1.0  0.6810700000000001  0.09099999999999997  0.5772  1.0000
  Ga  Ga33      1.0  0.65832  0.7077899999999999  0.17210000000000011  1.0000
  Ga  Ga34      1.0  0.34168  0.29221  0.17210000000000011  1.0000
  Ga  Ga35      1.0  0.7077899999999999  0.34168  0.8278999999999997  1.0000
  Ga  Ga36      1.0  0.29221  0.65832  0.8278999999999997  1.0000
  Ga  Ga37      1.0  0.84168  0.7077899999999999  0.5778999999999999  1.0000
  Ga  Ga38      1.0  0.15832  0.29221  0.5778999999999999  1.0000
  Ga  Ga39      1.0  0.7922100000000001  0.34168  0.9221000000000001  1.0000
  Ga  Ga40      1.0  0.20778999999999997  0.65832  0.9221000000000001  1.0000
  Ga  Ga41      1.0  0.15832  0.20778999999999997  0.6721000000000001  1.0000
  Ga  Ga42      1.0  0.84168  0.7922100000000001  0.6721000000000001  1.0000
  Ga  Ga43      1.0  0.20778999999999997  0.84168  0.32789999999999986  1.0000
  Ga  Ga44      1.0  0.7922100000000001  0.15832  0.32789999999999986  1.0000
  Ga  Ga45      1.0  0.34168  0.20778999999999997  0.07789999999999986  1.0000
  Ga  Ga46      1.0  0.65832  0.7922100000000001  0.07789999999999986  1.0000
  Ga  Ga47      1.0  0.29221  0.84168  0.4221000000000001  1.0000
  Ga  Ga48      1.0  0.7077899999999999  0.15832  0.4221000000000001  1.0000
  Ga  Ga49      1.0  0.58926  0.6457700000000001  0.10489999999999998  1.0000
  Ga  Ga50      1.0  0.41073999999999994  0.35422999999999993  0.10489999999999998  1.0000
  Ga  Ga51      1.0  0.6457700000000001  0.41073999999999994  0.8951  1.0000
  Ga  Ga52      1.0  0.35422999999999993  0.58926  0.8951  1.0000
  Ga  Ga53      1.0  0.9107399999999999  0.6457700000000001  0.6450999999999999  1.0000
  Ga  Ga54      1.0  0.08925999999999988  0.35422999999999993  0.6450999999999999  1.0000
  Ga  Ga55      1.0  0.8542299999999999  0.41073999999999994  0.8549  1.0000
  Ga  Ga56      1.0  0.14577000000000007  0.58926  0.8549  1.0000
  Ga  Ga57      1.0  0.08925999999999988  0.14577000000000007  0.6049  1.0000
  Ga  Ga58      1.0  0.9107399999999999  0.8542299999999999  0.6049  1.0000
  Ga  Ga59      1.0  0.14577000000000007  0.9107399999999999  0.3951  1.0000
  Ga  Ga60      1.0  0.8542299999999999  0.08925999999999988  0.3951  1.0000
  Ga  Ga61      1.0  0.41073999999999994  0.14577000000000007  0.1451  1.0000
  Ga  Ga62      1.0  0.58926  0.8542299999999999  0.1451  1.0000
  Ga  Ga63      1.0  0.35422999999999993  0.9107399999999999  0.3549  1.0000
  Ga  Ga64      1.0  0.6457700000000001  0.08925999999999988  0.3549  1.0000
  Ga  Ga65      1.0  0.52434  0.74124  0.38959999999999995  1.0000
  Ga  Ga66      1.0  0.4756599999999999  0.25876  0.38959999999999995  1.0000
  Ga  Ga67      1.0  0.74124  0.4756599999999999  0.6104  1.0000
  Ga  Ga68      1.0  0.25876  0.52434  0.6104  1.0000
  Ga  Ga69      1.0  0.9756599999999999  0.74124  0.36040000000000005  1.0000
  Ga  Ga70      1.0  0.02434000000000003  0.25876  0.36040000000000005  1.0000
  Ga  Ga71      1.0  0.75876  0.4756599999999999  0.13959999999999995  1.0000
  Ga  Ga72      1.0  0.24124  0.52434  0.13959999999999995  1.0000
  Ga  Ga73      1.0  0.02434000000000003  0.24124  0.8896  1.0000
  Ga  Ga74      1.0  0.9756599999999999  0.75876  0.8896  1.0000
  Ga  Ga75      1.0  0.24124  0.9756599999999999  0.11040000000000005  1.0000
  Ga  Ga76      1.0  0.75876  0.02434000000000003  0.11040000000000005  1.0000
  Ga  Ga77      1.0  0.4756599999999999  0.24124  0.8603999999999999  1.0000
  Ga  Ga78      1.0  0.52434  0.75876  0.8603999999999999  1.0000
  Ga  Ga79      1.0  0.25876  0.9756599999999999  0.6396  1.0000
  Ga  Ga80      1.0  0.74124  0.02434000000000003  0.6396  1.0000
  Ga  Ga81      1.0  0.45820999999999995  0.8023  0.4484000000000001  1.0000
  Ga  Ga82      1.0  0.54179  0.1977  0.4484000000000001  1.0000
  Ga  Ga83      1.0  0.8023  0.54179  0.5515999999999998  1.0000
  Ga  Ga84      1.0  0.1977  0.45820999999999995  0.5515999999999998  1.0000
  Ga  Ga85      1.0  0.04179000000000005  0.8023  0.30159999999999987  1.0000
  Ga  Ga86      1.0  0.9582099999999999  0.1977  0.30159999999999987  1.0000
  Ga  Ga87      1.0  0.6977  0.54179  0.1984000000000001  1.0000
  Ga  Ga88      1.0  0.3023  0.45820999999999995  0.1984000000000001  1.0000
  Ga  Ga89      1.0  0.9582099999999999  0.3023  0.9484000000000001  1.0000
  Ga  Ga90      1.0  0.04179000000000005  0.6977  0.9484000000000001  1.0000
  Ga  Ga91      1.0  0.3023  0.04179000000000005  0.05159999999999987  1.0000
  Ga  Ga92      1.0  0.6977  0.9582099999999999  0.05159999999999987  1.0000
  Ga  Ga93      1.0  0.54179  0.3023  0.8015999999999999  1.0000
  Ga  Ga94      1.0  0.45820999999999995  0.6977  0.8015999999999999  1.0000
  Ga  Ga95      1.0  0.1977  0.04179000000000005  0.6984000000000001  1.0000
  Ga  Ga96      1.0  0.8023  0.9582099999999999  0.6984000000000001  1.0000
  Ga  Ga97      1.0  0.52472  0.8286100000000001  0.3004  1.0000
  Ga  Ga98      1.0  0.47528  0.17139  0.3004  1.0000
  Ga  Ga99      1.0  0.8286100000000001  0.47528  0.6996  1.0000
  Ga  Ga100     1.0  0.17139  0.52472  0.6996  1.0000
  Ga  Ga101     1.0  0.9752799999999999  0.8286100000000001  0.4496  1.0000
  Ga  Ga102     1.0  0.024719999999999853  0.17139  0.4496  1.0000
  Ga  Ga103     1.0  0.6713899999999999  0.47528  0.05039999999999999  1.0000
  Ga  Ga104     1.0  0.32860999999999996  0.52472  0.05039999999999999  1.0000
  Ga  Ga105     1.0  0.024719999999999853  0.32860999999999996  0.8004  1.0000
  Ga  Ga106     1.0  0.9752799999999999  0.6713899999999999  0.8004  1.0000
  Ga  Ga107     1.0  0.32860999999999996  0.9752799999999999  0.1996  1.0000
  Ga  Ga108     1.0  0.6713899999999999  0.024719999999999853  0.1996  1.0000
  Ga  Ga109     1.0  0.47528  0.32860999999999996  0.9495999999999999  1.0000
  Ga  Ga110     1.0  0.52472  0.6713899999999999  0.9495999999999999  1.0000
  Ga  Ga111     1.0  0.17139  0.9752799999999999  0.5504  1.0000
  Ga  Ga112     1.0  0.8286100000000001  0.024719999999999853  0.5504  1.0000
  Ga  Ga113     1.0  0.45709  0.76658  0.23299999999999998  1.0000
  Ga  Ga114     1.0  0.5429099999999999  0.23341999999999996  0.23299999999999998  1.0000
  Ga  Ga115     1.0  0.76658  0.5429099999999999  0.767  1.0000
  Ga  Ga116     1.0  0.23341999999999996  0.45709  0.767  1.0000
  Ga  Ga117     1.0  0.042910000000000004  0.76658  0.5169999999999999  1.0000
  Ga  Ga118     1.0  0.9570899999999999  0.23341999999999996  0.5169999999999999  1.0000
  Ga  Ga119     1.0  0.73342  0.5429099999999999  0.9829999999999999  1.0000
  Ga  Ga120     1.0  0.26658000000000004  0.45709  0.9829999999999999  1.0000
  Ga  Ga121     1.0  0.9570899999999999  0.26658000000000004  0.7329999999999999  1.0000
  Ga  Ga122     1.0  0.042910000000000004  0.73342  0.7329999999999999  1.0000
  Ga  Ga123     1.0  0.26658000000000004  0.042910000000000004  0.2669999999999999  1.0000
  Ga  Ga124     1.0  0.73342  0.9570899999999999  0.2669999999999999  1.0000
  Ga  Ga125     1.0  0.5429099999999999  0.26658000000000004  0.016999999999999904  1.0000
  Ga  Ga126     1.0  0.45709  0.73342  0.016999999999999904  1.0000
  Ga  Ga127     1.0  0.23341999999999996  0.042910000000000004  0.483  1.0000
  Ga  Ga128     1.0  0.76658  0.9570899999999999  0.483  1.0000
  Se  Se1       1.0  0.6845999999999999  0.5747  0.3173  1.0000
  Se  Se2       1.0  0.3154000000000001  0.42529999999999996  0.3173  1.0000
  Se  Se3       1.0  0.5747  0.3154000000000001  0.6827  1.0000
  Se  Se4       1.0  0.42529999999999996  0.6845999999999999  0.6827  1.0000
  Se  Se5       1.0  0.8154000000000001  0.5747  0.4327000000000001  1.0000
  Se  Se6       1.0  0.18459999999999988  0.42529999999999996  0.4327000000000001  1.0000
  Se  Se7       1.0  0.9253  0.3154000000000001  0.06730000000000003  1.0000
  Se  Se8       1.0  0.07470000000000004  0.6845999999999999  0.06730000000000003  1.0000
  Se  Se9       1.0  0.18459999999999988  0.07470000000000004  0.8173  1.0000
  Se  Se10      1.0  0.8154000000000001  0.9253  0.8173  1.0000
  Se  Se11      1.0  0.07470000000000004  0.8154000000000001  0.18270000000000008  1.0000
  Se  Se12      1.0  0.9253  0.18459999999999988  0.18270000000000008  1.0000
  Se  Se13      1.0  0.3154000000000001  0.07470000000000004  0.9326999999999999  1.0000
  Se  Se14      1.0  0.6845999999999999  0.9253  0.9326999999999999  1.0000
  Se  Se15      1.0  0.42529999999999996  0.8154000000000001  0.5673  1.0000
  Se  Se16      1.0  0.5747  0.18459999999999988  0.5673  1.0000
  Se  Se17      1.0  0.6237  0.6379  0.3797  1.0000
  Se  Se18      1.0  0.37629999999999997  0.3621  0.3797  1.0000
  Se  Se19      1.0  0.6379  0.37629999999999997  0.6203  1.0000
  Se  Se20      1.0  0.3621  0.6237  0.6203  1.0000
  Se  Se21      1.0  0.8762999999999999  0.6379  0.37029999999999985  1.0000
  Se  Se22      1.0  0.12369999999999992  0.3621  0.37029999999999985  1.0000
  Se  Se23      1.0  0.8621  0.37629999999999997  0.1297  1.0000
  Se  Se24      1.0  0.13790000000000002  0.6237  0.1297  1.0000
  Se  Se25      1.0  0.12369999999999992  0.13790000000000002  0.8797  1.0000
  Se  Se26      1.0  0.8762999999999999  0.8621  0.8797  1.0000
  Se  Se27      1.0  0.13790000000000002  0.8762999999999999  0.12029999999999984  1.0000
  Se  Se28      1.0  0.8621  0.12369999999999992  0.12029999999999984  1.0000
  Se  Se29      1.0  0.37629999999999997  0.13790000000000002  0.8702999999999999  1.0000
  Se  Se30      1.0  0.6237  0.8621  0.8702999999999999  1.0000
  Se  Se31      1.0  0.3621  0.8762999999999999  0.6297  1.0000
  Se  Se32      1.0  0.6379  0.12369999999999992  0.6297  1.0000
  Se  Se33      1.0  0.6936999999999999  0.6635  0.2135000000000001  1.0000
  Se  Se34      1.0  0.3063000000000001  0.3365  0.2135000000000001  1.0000
  Se  Se35      1.0  0.6635  0.3063000000000001  0.7864999999999998  1.0000
  Se  Se36      1.0  0.3365  0.6936999999999999  0.7864999999999998  1.0000
  Se  Se37      1.0  0.8063000000000001  0.6635  0.5364999999999998  1.0000
  Se  Se38      1.0  0.19369999999999973  0.3365  0.5364999999999998  1.0000
  Se  Se39      1.0  0.8365  0.3063000000000001  0.9635000000000001  1.0000
  Se  Se40      1.0  0.16349999999999998  0.6936999999999999  0.9635000000000001  1.0000
  Se  Se41      1.0  0.19369999999999973  0.16349999999999998  0.7135000000000001  1.0000
  Se  Se42      1.0  0.8063000000000001  0.8365  0.7135000000000001  1.0000
  Se  Se43      1.0  0.16349999999999998  0.8063000000000001  0.2864999999999997  1.0000
  Se  Se44      1.0  0.8365  0.19369999999999973  0.2864999999999997  1.0000
  Se  Se45      1.0  0.3063000000000001  0.16349999999999998  0.036499999999999755  1.0000
  Se  Se46      1.0  0.6936999999999999  0.8365  0.036499999999999755  1.0000
  Se  Se47      1.0  0.3365  0.8063000000000001  0.46350000000000013  1.0000
  Se  Se48      1.0  0.6635  0.19369999999999973  0.46350000000000013  1.0000
  Se  Se49      1.0  0.6222  0.6005  0.14349999999999996  1.0000
  Se  Se50      1.0  0.3778  0.3995  0.14349999999999996  1.0000
  Se  Se51      1.0  0.6005  0.3778  0.8565  1.0000
  Se  Se52      1.0  0.3995  0.6222  0.8565  1.0000
  Se  Se53      1.0  0.8778  0.6005  0.6065  1.0000
  Se  Se54      1.0  0.12219999999999985  0.3995  0.6065  1.0000
  Se  Se55      1.0  0.8994999999999999  0.3778  0.8935  1.0000
  Se  Se56      1.0  0.10049999999999998  0.6222  0.8935  1.0000
  Se  Se57      1.0  0.12219999999999985  0.10049999999999998  0.6434999999999998  1.0000
  Se  Se58      1.0  0.8778  0.8994999999999999  0.6434999999999998  1.0000
  Se  Se59      1.0  0.10049999999999998  0.8778  0.3565  1.0000
  Se  Se60      1.0  0.8994999999999999  0.12219999999999985  0.3565  1.0000
  Se  Se61      1.0  0.3778  0.10049999999999998  0.10650000000000004  1.0000
  Se  Se62      1.0  0.6222  0.8994999999999999  0.10650000000000004  1.0000
  Se  Se63      1.0  0.3995  0.8778  0.39349999999999996  1.0000
  Se  Se64      1.0  0.6005  0.12219999999999985  0.39349999999999996  1.0000
  Se  Se65      1.0  0.5568  0.6970000000000001  0.44  1.0000
  Se  Se66      1.0  0.4432  0.303  0.44  1.0000
  Se  Se67      1.0  0.6970000000000001  0.4432  0.5599999999999998  1.0000
  Se  Se68      1.0  0.303  0.5568  0.5599999999999998  1.0000
  Se  Se69      1.0  0.9432  0.6970000000000001  0.31000000000000005  1.0000
  Se  Se70      1.0  0.056799999999999955  0.303  0.31000000000000005  1.0000
  Se  Se71      1.0  0.8029999999999999  0.4432  0.19000000000000006  1.0000
  Se  Se72      1.0  0.197  0.5568  0.19000000000000006  1.0000
  Se  Se73      1.0  0.056799999999999955  0.197  0.9400000000000001  1.0000
  Se  Se74      1.0  0.9432  0.8029999999999999  0.9400000000000001  1.0000
  Se  Se75      1.0  0.197  0.9432  0.060000000000000046  1.0000
  Se  Se76      1.0  0.8029999999999999  0.056799999999999955  0.060000000000000046  1.0000
  Se  Se77      1.0  0.4432  0.197  0.8099999999999999  1.0000
  Se  Se78      1.0  0.5568  0.8029999999999999  0.8099999999999999  1.0000
  Se  Se79      1.0  0.303  0.9432  0.6900000000000001  1.0000
  Se  Se80      1.0  0.6970000000000001  0.056799999999999955  0.6900000000000001  1.0000
  Se  Se81      1.0  0.5540999999999999  0.6617999999999998  0.21709999999999996  1.0000
  Se  Se82      1.0  0.4459000000000001  0.3382  0.21709999999999996  1.0000
  Se  Se83      1.0  0.6617999999999998  0.4459000000000001  0.7829  1.0000
  Se  Se84      1.0  0.3382  0.5540999999999999  0.7829  1.0000
  Se  Se85      1.0  0.9459000000000001  0.6617999999999998  0.5329  1.0000
  Se  Se86      1.0  0.05410000000000004  0.3382  0.5329  1.0000
  Se  Se87      1.0  0.8382  0.4459000000000001  0.9671  1.0000
  Se  Se88      1.0  0.1618  0.5540999999999999  0.9671  1.0000
  Se  Se89      1.0  0.05410000000000004  0.1618  0.7170999999999998  1.0000
  Se  Se90      1.0  0.9459000000000001  0.8382  0.7170999999999998  1.0000
  Se  Se91      1.0  0.1618  0.9459000000000001  0.28290000000000015  1.0000
  Se  Se92      1.0  0.8382  0.05410000000000004  0.28290000000000015  1.0000
  Se  Se93      1.0  0.4459000000000001  0.1618  0.03290000000000015  1.0000
  Se  Se94      1.0  0.5540999999999999  0.8382  0.03290000000000015  1.0000
  Se  Se95      1.0  0.3382  0.9459000000000001  0.46709999999999996  1.0000
  Se  Se96      1.0  0.6617999999999998  0.05410000000000004  0.46709999999999996  1.0000
  Se  Se97      1.0  0.6254  0.7274999999999999  0.28850000000000003  1.0000
  Se  Se98      1.0  0.37460000000000004  0.27249999999999996  0.28850000000000003  1.0000
  Se  Se99      1.0  0.7274999999999999  0.37460000000000004  0.7114999999999998  1.0000
  Se  Se100     1.0  0.27249999999999996  0.6254  0.7114999999999998  1.0000
  Se  Se101     1.0  0.8745999999999999  0.7274999999999999  0.4615  1.0000
  Se  Se102     1.0  0.12539999999999996  0.27249999999999996  0.4615  1.0000
  Se  Se103     1.0  0.7725  0.37460000000000004  0.03850000000000008  1.0000
  Se  Se104     1.0  0.22750000000000004  0.6254  0.03850000000000008  1.0000
  Se  Se105     1.0  0.12539999999999996  0.22750000000000004  0.7885000000000001  1.0000
  Se  Se106     1.0  0.8745999999999999  0.7725  0.7885000000000001  1.0000
  Se  Se107     1.0  0.22750000000000004  0.8745999999999999  0.2115  1.0000
  Se  Se108     1.0  0.7725  0.12539999999999996  0.2115  1.0000
  Se  Se109     1.0  0.37460000000000004  0.22750000000000004  0.9614999999999999  1.0000
  Se  Se110     1.0  0.6254  0.7725  0.9614999999999999  1.0000
  Se  Se111     1.0  0.27249999999999996  0.8745999999999999  0.5385000000000001  1.0000
  Se  Se112     1.0  0.7274999999999999  0.12539999999999996  0.5385000000000001  1.0000
  Se  Se113     1.0  0.5572999999999999  0.6263000000000001  0.9921999999999999  1.0000
  Se  Se114     1.0  0.4427000000000001  0.3737  0.9921999999999999  1.0000
  Se  Se115     1.0  0.6263000000000001  0.4427000000000001  0.007800000000000028  1.0000
  Se  Se116     1.0  0.3737  0.5572999999999999  0.007800000000000028  1.0000
  Se  Se117     1.0  0.9427  0.6263000000000001  0.7578  1.0000
  Se  Se118     1.0  0.05729999999999991  0.3737  0.7578  1.0000
  Se  Se119     1.0  0.8736999999999999  0.4427000000000001  0.7422  1.0000
  Se  Se120     1.0  0.12630000000000002  0.5572999999999999  0.7422  1.0000
  Se  Se121     1.0  0.05729999999999991  0.12630000000000002  0.4921999999999999  1.0000
  Se  Se122     1.0  0.9427  0.8736999999999999  0.4921999999999999  1.0000
  Se  Se123     1.0  0.12630000000000002  0.9427  0.5078  1.0000
  Se  Se124     1.0  0.8736999999999999  0.05729999999999991  0.5078  1.0000
  Se  Se125     1.0  0.4427000000000001  0.12630000000000002  0.25780000000000003  1.0000
  Se  Se126     1.0  0.5572999999999999  0.8736999999999999  0.25780000000000003  1.0000
  Se  Se127     1.0  0.3737  0.9427  0.24219999999999997  1.0000
  Se  Se128     1.0  0.6263000000000001  0.05729999999999991  0.24219999999999997  1.0000
  Se  Se129     1.0  0.6938999999999999  0.75  0.125  1.0000
  Se  Se130     1.0  0.30610000000000015  0.25  0.125  1.0000
  Se  Se131     1.0  0.75  0.30610000000000015  0.875  1.0000
  Se  Se132     1.0  0.25  0.6938999999999999  0.875  1.0000
  Se  Se133     1.0  0.8061000000000001  0.75  0.6249999999999999  1.0000
  Se  Se134     1.0  0.1938999999999997  0.25  0.6249999999999999  1.0000
  Se  Se135     1.0  0.25  0.8061000000000001  0.375  1.0000
  Se  Se136     1.0  0.75  0.1938999999999997  0.375  1.0000
  Se  Se137     1.0  0.4915  0.7575000000000001  0.5046  1.0000
  Se  Se138     1.0  0.5084999999999998  0.24249999999999997  0.5046  1.0000
  Se  Se139     1.0  0.7575000000000001  0.5084999999999998  0.49539999999999995  1.0000
  Se  Se140     1.0  0.24249999999999997  0.4915  0.49539999999999995  1.0000
  Se  Se141     1.0  0.008500000000000008  0.7575000000000001  0.24540000000000006  1.0000
  Se  Se142     1.0  0.9914999999999999  0.24249999999999997  0.24540000000000006  1.0000
  Se  Se143     1.0  0.7424999999999999  0.5084999999999998  0.25460000000000005  1.0000
  Se  Se144     1.0  0.25750000000000006  0.4915  0.25460000000000005  1.0000
  Se  Se145     1.0  0.9914999999999999  0.25750000000000006  0.0046000000000000485  1.0000
  Se  Se146     1.0  0.008500000000000008  0.7424999999999999  0.0046000000000000485  1.0000
  Se  Se147     1.0  0.25750000000000006  0.008500000000000008  0.9954  1.0000
  Se  Se148     1.0  0.7424999999999999  0.9914999999999999  0.9954  1.0000
  Se  Se149     1.0  0.5084999999999998  0.25750000000000006  0.7453999999999998  1.0000
  Se  Se150     1.0  0.4915  0.7424999999999999  0.7453999999999998  1.0000
  Se  Se151     1.0  0.24249999999999997  0.008500000000000008  0.7546  1.0000
  Se  Se152     1.0  0.7575000000000001  0.9914999999999999  0.7546  1.0000
  Se  Se153     1.0  0.4893  0.7206  0.2792  1.0000
  Se  Se154     1.0  0.5106999999999999  0.2794  0.2792  1.0000
  Se  Se155     1.0  0.7206  0.5106999999999999  0.7208  1.0000
  Se  Se156     1.0  0.2794  0.4893  0.7208  1.0000
  Se  Se157     1.0  0.010699999999999987  0.7206  0.4708000000000001  1.0000
  Se  Se158     1.0  0.9893000000000001  0.2794  0.4708000000000001  1.0000
  Se  Se159     1.0  0.7794  0.5106999999999999  0.029200000000000004  1.0000
  Se  Se160     1.0  0.22060000000000002  0.4893  0.029200000000000004  1.0000
  Se  Se161     1.0  0.9893000000000001  0.22060000000000002  0.7792  1.0000
  Se  Se162     1.0  0.010699999999999987  0.7794  0.7792  1.0000
  Se  Se163     1.0  0.22060000000000002  0.010699999999999987  0.2208000000000001  1.0000
  Se  Se164     1.0  0.7794  0.9893000000000001  0.2208000000000001  1.0000
  Se  Se165     1.0  0.5106999999999999  0.22060000000000002  0.9707999999999999  1.0000
  Se  Se166     1.0  0.4893  0.7794  0.9707999999999999  1.0000
  Se  Se167     1.0  0.2794  0.010699999999999987  0.5292  1.0000
  Se  Se168     1.0  0.7206  0.9893000000000001  0.5292  1.0000
  Se  Se169     1.0  0.561  0.7851999999999999  0.3501999999999999  1.0000
  Se  Se170     1.0  0.4389999999999999  0.2148  0.3501999999999999  1.0000
  Se  Se171     1.0  0.7851999999999999  0.4389999999999999  0.6498  1.0000
  Se  Se172     1.0  0.2148  0.561  0.6498  1.0000
  Se  Se173     1.0  0.939  0.7851999999999999  0.3997999999999999  1.0000
  Se  Se174     1.0  0.06099999999999994  0.2148  0.3997999999999999  1.0000
  Se  Se175     1.0  0.7148  0.4389999999999999  0.10019999999999996  1.0000
  Se  Se176     1.0  0.2852  0.561  0.10019999999999996  1.0000
  Se  Se177     1.0  0.06099999999999994  0.2852  0.8501999999999998  1.0000
  Se  Se178     1.0  0.939  0.7148  0.8501999999999998  1.0000
  Se  Se179     1.0  0.2852  0.939  0.14979999999999993  1.0000
  Se  Se180     1.0  0.7148  0.06099999999999994  0.14979999999999993  1.0000
  Se  Se181     1.0  0.4389999999999999  0.2852  0.8997999999999999  1.0000
  Se  Se182     1.0  0.561  0.7148  0.8997999999999999  1.0000
  Se  Se183     1.0  0.2148  0.939  0.6002  1.0000
  Se  Se184     1.0  0.7851999999999999  0.06099999999999994  0.6002  1.0000
  Se  Se185     1.0  0.5569  0.75  0.125  1.0000
  Se  Se186     1.0  0.44310000000000005  0.25  0.125  1.0000
  Se  Se187     1.0  0.75  0.44310000000000005  0.875  1.0000
  Se  Se188     1.0  0.25  0.5569  0.875  1.0000
  Se  Se189     1.0  0.9431  0.75  0.6249999999999999  1.0000
  Se  Se190     1.0  0.05689999999999995  0.25  0.6249999999999999  1.0000
  Se  Se191     1.0  0.25  0.9431  0.375  1.0000
  Se  Se192     1.0  0.75  0.05689999999999995  0.375  1.0000
  Se  Se193     1.0  0.6242  0.8104999999999999  0.19330000000000003  1.0000
  Se  Se194     1.0  0.3758  0.18949999999999997  0.19330000000000003  1.0000
  Se  Se195     1.0  0.8104999999999999  0.3758  0.8067  1.0000
  Se  Se196     1.0  0.18949999999999997  0.6242  0.8067  1.0000
  Se  Se197     1.0  0.8758  0.8104999999999999  0.5567  1.0000
  Se  Se198     1.0  0.12420000000000009  0.18949999999999997  0.5567  1.0000
  Se  Se199     1.0  0.6895  0.3758  0.9433  1.0000
  Se  Se200     1.0  0.3105  0.6242  0.9433  1.0000
  Se  Se201     1.0  0.12420000000000009  0.3105  0.6932999999999999  1.0000
  Se  Se202     1.0  0.8758  0.6895  0.6932999999999999  1.0000
  Se  Se203     1.0  0.3105  0.8758  0.3067  1.0000
  Se  Se204     1.0  0.6895  0.12420000000000009  0.3067  1.0000
  Se  Se205     1.0  0.3758  0.3105  0.056699999999999966  1.0000
  Se  Se206     1.0  0.6242  0.6895  0.056699999999999966  1.0000
  Se  Se207     1.0  0.18949999999999997  0.8758  0.4433  1.0000
  Se  Se208     1.0  0.8104999999999999  0.12420000000000009  0.4433  1.0000
  Se  Se209     1.0  0.492  0.849  0.40980000000000005  1.0000
  Se  Se210     1.0  0.508  0.151  0.40980000000000005  1.0000
  Se  Se211     1.0  0.849  0.508  0.5902  1.0000
  Se  Se212     1.0  0.151  0.492  0.5902  1.0000
  Se  Se213     1.0  0.008000000000000007  0.849  0.3401999999999998  1.0000
  Se  Se214     1.0  0.9919999999999999  0.151  0.3401999999999998  1.0000
  Se  Se215     1.0  0.651  0.508  0.15980000000000003  1.0000
  Se  Se216     1.0  0.349  0.492  0.15980000000000003  1.0000
  Se  Se217     1.0  0.9919999999999999  0.349  0.9097999999999999  1.0000
  Se  Se218     1.0  0.008000000000000007  0.651  0.9097999999999999  1.0000
  Se  Se219     1.0  0.349  0.008000000000000007  0.09019999999999984  1.0000
  Se  Se220     1.0  0.651  0.9919999999999999  0.09019999999999984  1.0000
  Se  Se221     1.0  0.508  0.349  0.8401999999999998  1.0000
  Se  Se222     1.0  0.492  0.651  0.8401999999999998  1.0000
  Se  Se223     1.0  0.151  0.008000000000000007  0.6598  1.0000
  Se  Se224     1.0  0.849  0.9919999999999999  0.6598  1.0000
  Se  Se225     1.0  0.4896  0.8127  0.18600000000000003  1.0000
  Se  Se226     1.0  0.5104  0.18729999999999997  0.18600000000000003  1.0000
  Se  Se227     1.0  0.8127  0.5104  0.814  1.0000
  Se  Se228     1.0  0.18729999999999997  0.4896  0.814  1.0000
  Se  Se229     1.0  0.01040000000000002  0.8127  0.5640000000000001  1.0000
  Se  Se230     1.0  0.9896  0.18729999999999997  0.5640000000000001  1.0000
  Se  Se231     1.0  0.6873  0.5104  0.936  1.0000
  Se  Se232     1.0  0.31270000000000003  0.4896  0.936  1.0000
  Se  Se233     1.0  0.9896  0.31270000000000003  0.6859999999999999  1.0000
  Se  Se234     1.0  0.01040000000000002  0.6873  0.6859999999999999  1.0000
  Se  Se235     1.0  0.31270000000000003  0.01040000000000002  0.314  1.0000
  Se  Se236     1.0  0.6873  0.9896  0.314  1.0000
  Se  Se237     1.0  0.5104  0.31270000000000003  0.06400000000000006  1.0000
  Se  Se238     1.0  0.4896  0.6873  0.06400000000000006  1.0000
  Se  Se239     1.0  0.18729999999999997  0.01040000000000002  0.43600000000000005  1.0000
  Se  Se240     1.0  0.8127  0.9896  0.43600000000000005  1.0000
  Se  Se241     1.0  0.4212  0.75  0.125  1.0000
  Se  Se242     1.0  0.5787999999999999  0.25  0.125  1.0000
  Se  Se243     1.0  0.75  0.5787999999999999  0.875  1.0000
  Se  Se244     1.0  0.25  0.4212  0.875  1.0000
  Se  Se245     1.0  0.07879999999999998  0.75  0.6249999999999999  1.0000
  Se  Se246     1.0  0.9211999999999999  0.25  0.6249999999999999  1.0000
  Se  Se247     1.0  0.25  0.07879999999999998  0.375  1.0000
  Se  Se248     1.0  0.75  0.9211999999999999  0.375  1.0000
  Se  Se249     1.0  0.4215  0.7815000000000001  0.34319999999999995  1.0000
  Se  Se250     1.0  0.5785  0.21849999999999997  0.34319999999999995  1.0000
  Se  Se251     1.0  0.7815000000000001  0.5785  0.6568  1.0000
  Se  Se252     1.0  0.21849999999999997  0.4215  0.6568  1.0000
  Se  Se253     1.0  0.07850000000000001  0.7815000000000001  0.4068  1.0000
  Se  Se254     1.0  0.9214999999999999  0.21849999999999997  0.4068  1.0000
  Se  Se255     1.0  0.7184999999999998  0.5785  0.09319999999999994  1.0000
  Se  Se256     1.0  0.28150000000000003  0.4215  0.09319999999999994  1.0000
  Se  Se257     1.0  0.9214999999999999  0.28150000000000003  0.8431999999999998  1.0000
  Se  Se258     1.0  0.07850000000000001  0.7184999999999998  0.8431999999999998  1.0000
  Se  Se259     1.0  0.28150000000000003  0.07850000000000001  0.15680000000000005  1.0000
  Se  Se260     1.0  0.7184999999999998  0.9214999999999999  0.15680000000000005  1.0000
  Se  Se261     1.0  0.5785  0.28150000000000003  0.9067999999999999  1.0000
  Se  Se262     1.0  0.4215  0.7184999999999998  0.9067999999999999  1.0000
  Se  Se263     1.0  0.21849999999999997  0.07850000000000001  0.5932  1.0000
  Se  Se264     1.0  0.7815000000000001  0.9214999999999999  0.5932  1.0000
