data_image0
_chemical_formula_structural       ThB6
_chemical_formula_sum              "Th1 B6"
_cell_length_a       4.1132
_cell_length_b       4.1132
_cell_length_c       4.1132
_cell_angle_alpha    90.0
_cell_angle_beta     90.0
_cell_angle_gamma    90.0

_space_group_name_H-M_alt    "P 1"
_space_group_IT_number       1

loop_
  _space_group_symop_operation_xyz
  'x, y, z'

loop_
  _atom_site_type_symbol
  _atom_site_label
  _atom_site_symmetry_multiplicity
  _atom_site_fract_x
  _atom_site_fract_y
  _atom_site_fract_z
  _atom_site_occupancy
  Th  Th1       1.0  0.5  0.5  0.5  1.0000
  B   B1        1.0  0.293  0.0  0.0  1.0000
  B   B2        1.0  0.0  0.0  0.293  1.0000
  B   B3        1.0  0.0  0.293  0.0  1.0000
  B   B4        1.0  0.0  0.0  0.7070000000000001  1.0000
  B   B5        1.0  0.0  0.7070000000000001  0.0  1.0000
  B   B6        1.0  0.7070000000000001  0.0  0.0  1.0000
