data_image0
_chemical_formula_structural       Mo8O32Ag16
_chemical_formula_sum              "Mo8 O32 Ag16"
_cell_length_a       9.26
_cell_length_b       9.26
_cell_length_c       9.26
_cell_angle_alpha    90.0
_cell_angle_beta     90.0
_cell_angle_gamma    90.0

_space_group_name_H-M_alt    "P 1"
_space_group_IT_number       1

loop_
  _space_group_symop_operation_xyz
  'x, y, z'

loop_
  _atom_site_type_symbol
  _atom_site_label
  _atom_site_symmetry_multiplicity
  _atom_site_fract_x
  _atom_site_fract_y
  _atom_site_fract_z
  _atom_site_occupancy
  Mo  Mo1       1.0  0.0  0.0  0.0  1.0000
  Mo  Mo2       1.0  0.25  0.25  0.25  1.0000
  Mo  Mo3       1.0  0.0  0.5  0.5  1.0000
  Mo  Mo4       1.0  0.5  0.0  0.5  1.0000
  Mo  Mo5       1.0  0.5  0.5  0.0  1.0000
  Mo  Mo6       1.0  0.25  0.75  0.75  1.0000
  Mo  Mo7       1.0  0.75  0.25  0.75  1.0000
  Mo  Mo8       1.0  0.75  0.75  0.25  1.0000
  O   O1        1.0  0.375  0.375  0.375  1.0000
  O   O2        1.0  0.375  0.625  0.625  1.0000
  O   O3        1.0  0.625  0.375  0.625  1.0000
  O   O4        1.0  0.625  0.625  0.375  1.0000
  O   O5        1.0  0.8749999999999999  0.8749999999999999  0.8749999999999999  1.0000
  O   O6        1.0  0.8749999999999999  0.625  0.625  1.0000
  O   O7        1.0  0.625  0.8749999999999999  0.625  1.0000
  O   O8        1.0  0.625  0.625  0.8749999999999999  1.0000
  O   O9        1.0  0.375  0.8749999999999999  0.8749999999999999  1.0000
  O   O10       1.0  0.8749999999999999  0.375  0.8749999999999999  1.0000
  O   O11       1.0  0.8749999999999999  0.8749999999999999  0.375  1.0000
  O   O12       1.0  0.375  0.125  0.125  1.0000
  O   O13       1.0  0.8749999999999999  0.625  0.125  1.0000
  O   O14       1.0  0.8749999999999999  0.125  0.625  1.0000
  O   O15       1.0  0.625  0.8749999999999999  0.125  1.0000
  O   O16       1.0  0.125  0.375  0.125  1.0000
  O   O17       1.0  0.125  0.8749999999999999  0.625  1.0000
  O   O18       1.0  0.625  0.125  0.8749999999999999  1.0000
  O   O19       1.0  0.125  0.625  0.8749999999999999  1.0000
  O   O20       1.0  0.125  0.125  0.375  1.0000
  O   O21       1.0  0.8749999999999999  0.375  0.375  1.0000
  O   O22       1.0  0.375  0.8749999999999999  0.375  1.0000
  O   O23       1.0  0.375  0.375  0.8749999999999999  1.0000
  O   O24       1.0  0.8749999999999999  0.125  0.125  1.0000
  O   O25       1.0  0.375  0.625  0.125  1.0000
  O   O26       1.0  0.375  0.125  0.625  1.0000
  O   O27       1.0  0.625  0.375  0.125  1.0000
  O   O28       1.0  0.125  0.8749999999999999  0.125  1.0000
  O   O29       1.0  0.125  0.375  0.625  1.0000
  O   O30       1.0  0.625  0.125  0.375  1.0000
  O   O31       1.0  0.125  0.625  0.375  1.0000
  O   O32       1.0  0.125  0.125  0.8749999999999999  1.0000
  Ag  Ag1       1.0  0.125  0.375  0.8749999999999999  1.0000
  Ag  Ag2       1.0  0.375  0.8749999999999999  0.125  1.0000
  Ag  Ag3       1.0  0.8749999999999999  0.125  0.375  1.0000
  Ag  Ag4       1.0  0.125  0.8749999999999999  0.375  1.0000
  Ag  Ag5       1.0  0.375  0.125  0.8749999999999999  1.0000
  Ag  Ag6       1.0  0.8749999999999999  0.375  0.125  1.0000
  Ag  Ag7       1.0  0.125  0.625  0.1250000000000001  1.0000
  Ag  Ag8       1.0  0.8749999999999999  0.8749999999999999  0.625  1.0000
  Ag  Ag9       1.0  0.125  0.1250000000000001  0.625  1.0000
  Ag  Ag10      1.0  0.8749999999999999  0.625  0.8749999999999999  1.0000
  Ag  Ag11      1.0  0.625  0.8749999999999999  0.8749999999999999  1.0000
  Ag  Ag12      1.0  0.625  0.125  0.1250000000000001  1.0000
  Ag  Ag13      1.0  0.3750000000000001  0.375  0.625  1.0000
  Ag  Ag14      1.0  0.3750000000000001  0.625  0.375  1.0000
  Ag  Ag15      1.0  0.625  0.3750000000000001  0.375  1.0000
  Ag  Ag16      1.0  0.625  0.625  0.625  1.0000
