data_image0
_chemical_formula_structural       Sr5Mn5O13
_chemical_formula_sum              "Sr5 Mn5 O13"
_cell_length_a       8.681
_cell_length_b       8.681
_cell_length_c       3.8585
_cell_angle_alpha    90.0
_cell_angle_beta     90.0
_cell_angle_gamma    90.0

_space_group_name_H-M_alt    "P 1"
_space_group_IT_number       1

loop_
  _space_group_symop_operation_xyz
  'x, y, z'

loop_
  _atom_site_type_symbol
  _atom_site_label
  _atom_site_symmetry_multiplicity
  _atom_site_fract_x
  _atom_site_fract_y
  _atom_site_fract_z
  _atom_site_occupancy
  Sr  Sr1       1.0  0.5  0.5  0.5  0.9000
  Sr  Sr2       1.0  0.1099  0.714  0.5  0.9000
  Sr  Sr3       1.0  0.28600000000000003  0.1099  0.5  0.9000
  Sr  Sr4       1.0  0.8900999999999999  0.28600000000000003  0.5  0.9000
  Sr  Sr5       1.0  0.714  0.8900999999999999  0.5  0.9000
  Mn  Mn1       1.0  0.0  0.0  0.0  1.0000
  Mn  Mn2       1.0  0.20049999999999996  0.4093  0.0  1.0000
  Mn  Mn3       1.0  0.5907  0.20049999999999996  0.0  1.0000
  Mn  Mn4       1.0  0.7995  0.5907  0.0  1.0000
  Mn  Mn5       1.0  0.4093  0.7995  0.0  1.0000
  O   O1        1.0  0.0849  0.2061  0.0  1.0000
  O   O2        1.0  0.7939  0.0849  0.0  1.0000
  O   O3        1.0  0.9151  0.7939  0.0  1.0000
  O   O4        1.0  0.2061  0.9151  0.0  1.0000
  O   O5        1.0  0.3974  0.2956  0.0  1.0000
  O   O6        1.0  0.7043999999999999  0.3974  0.0  1.0000
  O   O7        1.0  0.6026  0.7043999999999999  0.0  1.0000
  O   O8        1.0  0.2956  0.6026  0.0  1.0000
  O   O9        1.0  0.1851  0.4066999999999999  0.5  1.0000
  O   O10       1.0  0.5933  0.1851  0.5  1.0000
  O   O11       1.0  0.8148999999999998  0.5933  0.5  1.0000
  O   O12       1.0  0.4066999999999999  0.8148999999999998  0.5  1.0000
  O   O13       1.0  0.0  0.0  0.5  1.0000
  La  La1       1.0  0.5  0.5  0.5  0.1000
  La  La2       1.0  0.1099  0.714  0.5  0.1000
  La  La3       1.0  0.28600000000000003  0.1099  0.5  0.1000
  La  La4       1.0  0.8900999999999999  0.28600000000000003  0.5  0.1000
  La  La5       1.0  0.714  0.8900999999999999  0.5  0.1000
