data_image0
_chemical_formula_structural       Pt4In24Ge8O36
_chemical_formula_sum              "Pt4 In24 Ge8 O36"
_cell_length_a       10.06
_cell_length_b       10.06
_cell_length_c       10.06
_cell_angle_alpha    90.0
_cell_angle_beta     90.0
_cell_angle_gamma    90.0

_space_group_name_H-M_alt    "P 1"
_space_group_IT_number       1

loop_
  _space_group_symop_operation_xyz
  'x, y, z'

loop_
  _atom_site_type_symbol
  _atom_site_label
  _atom_site_symmetry_multiplicity
  _atom_site_fract_x
  _atom_site_fract_y
  _atom_site_fract_z
  _atom_site_occupancy
  Pt  Pt1       1.0  0.0  0.0  0.0  1.0000
  Pt  Pt2       1.0  0.0  0.5  0.5  1.0000
  Pt  Pt3       1.0  0.5  0.0  0.5  1.0000
  Pt  Pt4       1.0  0.5  0.5  0.0  1.0000
  In  In1       1.0  0.26057  0.0  0.0  1.0000
  In  In2       1.0  0.73943  0.0  0.0  1.0000
  In  In3       1.0  0.0  0.26057  0.0  1.0000
  In  In4       1.0  0.0  0.73943  0.0  1.0000
  In  In5       1.0  0.0  0.0  0.26057  1.0000
  In  In6       1.0  0.0  0.0  0.73943  1.0000
  In  In7       1.0  0.26057  0.5  0.5  1.0000
  In  In8       1.0  0.73943  0.5  0.5  1.0000
  In  In9       1.0  0.0  0.76057  0.5  1.0000
  In  In10      1.0  0.0  0.23942999999999998  0.5  1.0000
  In  In11      1.0  0.0  0.5  0.76057  1.0000
  In  In12      1.0  0.0  0.5  0.23942999999999998  1.0000
  In  In13      1.0  0.76057  0.0  0.5  1.0000
  In  In14      1.0  0.23942999999999998  0.0  0.5  1.0000
  In  In15      1.0  0.5  0.26057  0.5  1.0000
  In  In16      1.0  0.5  0.73943  0.5  1.0000
  In  In17      1.0  0.5  0.0  0.76057  1.0000
  In  In18      1.0  0.5  0.0  0.23942999999999998  1.0000
  In  In19      1.0  0.76057  0.5  0.0  1.0000
  In  In20      1.0  0.23942999999999998  0.5  0.0  1.0000
  In  In21      1.0  0.5  0.76057  0.0  1.0000
  In  In22      1.0  0.5  0.23942999999999998  0.0  1.0000
  In  In23      1.0  0.5  0.5  0.26057  1.0000
  In  In24      1.0  0.5  0.5  0.73943  1.0000
  Ge  Ge1       1.0  0.25  0.25  0.25  1.0000
  Ge  Ge2       1.0  0.7499999999999999  0.7499999999999999  0.25  1.0000
  Ge  Ge3       1.0  0.7499999999999999  0.25  0.7499999999999999  1.0000
  Ge  Ge4       1.0  0.25  0.7499999999999999  0.7499999999999999  1.0000
  Ge  Ge5       1.0  0.25  0.25  0.7499999999999999  1.0000
  Ge  Ge6       1.0  0.7499999999999999  0.7499999999999999  0.7499999999999999  1.0000
  Ge  Ge7       1.0  0.25  0.7499999999999999  0.25  1.0000
  Ge  Ge8       1.0  0.7499999999999999  0.25  0.25  1.0000
  O   O1        1.0  0.3506  0.1494  0.1494  1.0000
  O   O2        1.0  0.6494  0.8505999999999999  0.1494  1.0000
  O   O3        1.0  0.6494  0.1494  0.8505999999999999  1.0000
  O   O4        1.0  0.3506  0.8505999999999999  0.8505999999999999  1.0000
  O   O5        1.0  0.1494  0.3506  0.1494  1.0000
  O   O6        1.0  0.1494  0.6494  0.8505999999999999  1.0000
  O   O7        1.0  0.8505999999999999  0.6494  0.1494  1.0000
  O   O8        1.0  0.8505999999999999  0.3506  0.8505999999999999  1.0000
  O   O9        1.0  0.1494  0.1494  0.3506  1.0000
  O   O10       1.0  0.8505999999999999  0.1494  0.6494  1.0000
  O   O11       1.0  0.1494  0.8505999999999999  0.6494  1.0000
  O   O12       1.0  0.8505999999999999  0.8505999999999999  0.3506  1.0000
  O   O13       1.0  0.1494  0.3506  0.8505999999999999  1.0000
  O   O14       1.0  0.8505999999999999  0.6494  0.8505999999999999  1.0000
  O   O15       1.0  0.1494  0.6494  0.1494  1.0000
  O   O16       1.0  0.8505999999999999  0.3506  0.1494  1.0000
  O   O17       1.0  0.3506  0.1494  0.8505999999999999  1.0000
  O   O18       1.0  0.6494  0.1494  0.1494  1.0000
  O   O19       1.0  0.6494  0.8505999999999999  0.8505999999999999  1.0000
  O   O20       1.0  0.3506  0.8505999999999999  0.1494  1.0000
  O   O21       1.0  0.1494  0.1494  0.6494  1.0000
  O   O22       1.0  0.1494  0.8505999999999999  0.3506  1.0000
  O   O23       1.0  0.8505999999999999  0.1494  0.3506  1.0000
  O   O24       1.0  0.8505999999999999  0.8505999999999999  0.6494  1.0000
  O   O25       1.0  0.3506  0.6494  0.6494  1.0000
  O   O26       1.0  0.6494  0.3506  0.6494  1.0000
  O   O27       1.0  0.6494  0.6494  0.3506  1.0000
  O   O28       1.0  0.3506  0.3506  0.3506  1.0000
  O   O29       1.0  0.3506  0.6494  0.3506  1.0000
  O   O30       1.0  0.6494  0.6494  0.6494  1.0000
  O   O31       1.0  0.6494  0.3506  0.3506  1.0000
  O   O32       1.0  0.3506  0.3506  0.6494  1.0000
  O   O33       1.0  0.5  0.0  0.0  1.0000
  O   O34       1.0  0.0  0.5  0.0  1.0000
  O   O35       1.0  0.0  0.0  0.5  1.0000
  O   O36       1.0  0.5  0.5  0.5  1.0000
