data_image0
_chemical_formula_structural       Np4Se10
_chemical_formula_sum              "Np4 Se10"
_cell_length_a       5.4488
_cell_length_b       5.4488
_cell_length_c       10.6428
_cell_angle_alpha    90.0
_cell_angle_beta     90.0
_cell_angle_gamma    90.0

_space_group_name_H-M_alt    "P 1"
_space_group_IT_number       1

loop_
  _space_group_symop_operation_xyz
  'x, y, z'

loop_
  _atom_site_type_symbol
  _atom_site_label
  _atom_site_symmetry_multiplicity
  _atom_site_fract_x
  _atom_site_fract_y
  _atom_site_fract_z
  _atom_site_occupancy
  Np  Np1       1.0  0.25  0.25  0.3509  1.0000
  Np  Np2       1.0  0.25  0.25  0.8508999999999999  1.0000
  Np  Np3       1.0  0.7500000000000001  0.7500000000000001  0.6491  1.0000
  Np  Np4       1.0  0.7500000000000001  0.7500000000000001  0.14909999999999998  1.0000
  Se  Se1       1.0  0.25  0.5069300000000001  0.10307  1.0000
  Se  Se2       1.0  0.25  0.99307  0.10307  1.0000
  Se  Se3       1.0  0.99307  0.25  0.60307  1.0000
  Se  Se4       1.0  0.5069300000000001  0.25  0.60307  1.0000
  Se  Se5       1.0  0.7500000000000001  0.006930000000000104  0.89693  1.0000
  Se  Se6       1.0  0.7500000000000001  0.49306999999999995  0.89693  1.0000
  Se  Se7       1.0  0.006930000000000104  0.7500000000000001  0.39692999999999995  1.0000
  Se  Se8       1.0  0.49306999999999995  0.7500000000000001  0.39692999999999995  1.0000
  Se  Se9       1.0  0.7500000000000001  0.25  0.25  1.0000
  Se  Se10      1.0  0.25  0.7500000000000001  0.7499999999999999  1.0000
