data_image0
_chemical_formula_structural       Ge88Si16O236N32
_chemical_formula_sum              "Ge88 Si16 O236 N32"
_cell_length_a       34.476
_cell_length_b       19.8768
_cell_length_c       14.8594
_cell_angle_alpha    90.0
_cell_angle_beta     90.0
_cell_angle_gamma    90.0

_space_group_name_H-M_alt    "P 1"
_space_group_IT_number       1

loop_
  _space_group_symop_operation_xyz
  'x, y, z'

loop_
  _atom_site_type_symbol
  _atom_site_label
  _atom_site_symmetry_multiplicity
  _atom_site_fract_x
  _atom_site_fract_y
  _atom_site_fract_z
  _atom_site_occupancy
  Ge  Ge1       1.0  0.162345  0.13191  0.6500700000000003  1.0000
  Ge  Ge2       1.0  0.837655  0.86809  0.15007000000000018  1.0000
  Ge  Ge3       1.0  0.162345  0.86809  0.3499299999999999  1.0000
  Ge  Ge4       1.0  0.837655  0.13191  0.8499299999999999  1.0000
  Ge  Ge5       1.0  0.662345  0.63191  0.6500700000000003  1.0000
  Ge  Ge6       1.0  0.33765500000000004  0.36809000000000003  0.15007000000000018  1.0000
  Ge  Ge7       1.0  0.662345  0.36809000000000003  0.3499299999999999  1.0000
  Ge  Ge8       1.0  0.33765500000000004  0.63191  0.8499299999999999  1.0000
  Ge  Ge9       1.0  0.837655  0.86809  0.3499299999999999  1.0000
  Ge  Ge10      1.0  0.162345  0.13191  0.8499299999999999  1.0000
  Ge  Ge11      1.0  0.837655  0.13191  0.6500700000000003  1.0000
  Ge  Ge12      1.0  0.162345  0.86809  0.15007000000000018  1.0000
  Ge  Ge13      1.0  0.33765500000000004  0.36809000000000003  0.3499299999999999  1.0000
  Ge  Ge14      1.0  0.662345  0.63191  0.8499299999999999  1.0000
  Ge  Ge15      1.0  0.33765500000000004  0.63191  0.6500700000000003  1.0000
  Ge  Ge16      1.0  0.662345  0.36809000000000003  0.15007000000000018  1.0000
  Ge  Ge17      1.0  0.15481  0.00194  0.75  1.0000
  Ge  Ge18      1.0  0.84519  0.99806  0.25  1.0000
  Ge  Ge19      1.0  0.15481  0.99806  0.25  1.0000
  Ge  Ge20      1.0  0.84519  0.00194  0.75  1.0000
  Ge  Ge21      1.0  0.65481  0.50194  0.75  1.0000
  Ge  Ge22      1.0  0.34518999999999994  0.49805999999999995  0.25  1.0000
  Ge  Ge23      1.0  0.65481  0.49805999999999995  0.25  1.0000
  Ge  Ge24      1.0  0.34518999999999994  0.50194  0.75  1.0000
  Ge  Ge25      1.0  0.22956  0.07699  0.75  1.0000
  Ge  Ge26      1.0  0.7704399999999999  0.9230100000000001  0.25  1.0000
  Ge  Ge27      1.0  0.22956  0.9230100000000001  0.25  1.0000
  Ge  Ge28      1.0  0.7704399999999999  0.07699  0.75  1.0000
  Ge  Ge29      1.0  0.72956  0.57699  0.75  1.0000
  Ge  Ge30      1.0  0.27044  0.42301  0.25  1.0000
  Ge  Ge31      1.0  0.72956  0.42301  0.25  1.0000
  Ge  Ge32      1.0  0.27044  0.57699  0.75  1.0000
  Ge  Ge33      1.0  0.09876  0.03334  0.59729  0.8960
  Ge  Ge34      1.0  0.90124  0.96666  0.09729000000000011  0.8960
  Ge  Ge35      1.0  0.09876  0.96666  0.40271  0.8960
  Ge  Ge36      1.0  0.90124  0.03334  0.9027100000000001  0.8960
  Ge  Ge37      1.0  0.59876  0.53334  0.59729  0.8960
  Ge  Ge38      1.0  0.40123999999999993  0.46666  0.09729000000000011  0.8960
  Ge  Ge39      1.0  0.59876  0.46666  0.40271  0.8960
  Ge  Ge40      1.0  0.40123999999999993  0.53334  0.9027100000000001  0.8960
  Ge  Ge41      1.0  0.90124  0.96666  0.40271  0.8960
  Ge  Ge42      1.0  0.09876  0.03334  0.9027100000000001  0.8960
  Ge  Ge43      1.0  0.90124  0.03334  0.59729  0.8960
  Ge  Ge44      1.0  0.09876  0.96666  0.09729000000000011  0.8960
  Ge  Ge45      1.0  0.40123999999999993  0.46666  0.40271  0.8960
  Ge  Ge46      1.0  0.59876  0.53334  0.9027100000000001  0.8960
  Ge  Ge47      1.0  0.40123999999999993  0.53334  0.59729  0.8960
  Ge  Ge48      1.0  0.59876  0.46666  0.09729000000000011  0.8960
  Ge  Ge49      1.0  0.24445  0.17059  0.5902500000000002  0.7260
  Ge  Ge50      1.0  0.7555499999999998  0.82941  0.09025000000000016  0.7260
  Ge  Ge51      1.0  0.24445  0.82941  0.40974999999999984  0.7260
  Ge  Ge52      1.0  0.7555499999999998  0.17059  0.90975  0.7260
  Ge  Ge53      1.0  0.7444500000000001  0.67059  0.5902500000000002  0.7260
  Ge  Ge54      1.0  0.25555  0.32941  0.09025000000000016  0.7260
  Ge  Ge55      1.0  0.7444500000000001  0.32941  0.40974999999999984  0.7260
  Ge  Ge56      1.0  0.25555  0.67059  0.90975  0.7260
  Ge  Ge57      1.0  0.7555499999999998  0.82941  0.40974999999999984  0.7260
  Ge  Ge58      1.0  0.24445  0.17059  0.90975  0.7260
  Ge  Ge59      1.0  0.7555499999999998  0.17059  0.5902500000000002  0.7260
  Ge  Ge60      1.0  0.24445  0.82941  0.09025000000000016  0.7260
  Ge  Ge61      1.0  0.25555  0.32941  0.40974999999999984  0.7260
  Ge  Ge62      1.0  0.7444500000000001  0.67059  0.90975  0.7260
  Ge  Ge63      1.0  0.25555  0.67059  0.5902500000000002  0.7260
  Ge  Ge64      1.0  0.7444500000000001  0.32941  0.09025000000000016  0.7260
  Ge  Ge65      1.0  0.10865999999999998  0.22873999999999997  0.75  0.7990
  Ge  Ge66      1.0  0.8913399999999999  0.7712600000000001  0.25  0.7990
  Ge  Ge67      1.0  0.10865999999999998  0.7712600000000001  0.25  0.7990
  Ge  Ge68      1.0  0.8913399999999999  0.22873999999999997  0.75  0.7990
  Ge  Ge69      1.0  0.60866  0.7287399999999999  0.75  0.7990
  Ge  Ge70      1.0  0.39134  0.27126000000000006  0.25  0.7990
  Ge  Ge71      1.0  0.60866  0.27126000000000006  0.25  0.7990
  Ge  Ge72      1.0  0.39134  0.7287399999999999  0.75  0.7990
  Ge  Ge73      1.0  0.23156  0.9218  0.75  0.7000
  Ge  Ge74      1.0  0.76844  0.0782  0.25  0.7000
  Ge  Ge75      1.0  0.23156  0.0782  0.25  0.7000
  Ge  Ge76      1.0  0.76844  0.9218  0.75  0.7000
  Ge  Ge77      1.0  0.73156  0.4218  0.75  0.7000
  Ge  Ge78      1.0  0.26844  0.5782  0.25  0.7000
  Ge  Ge79      1.0  0.73156  0.5782  0.25  0.7000
  Ge  Ge80      1.0  0.26844  0.4218  0.75  0.7000
  Ge  Ge81      1.0  0.04869  0.10522  0.75  0.7120
  Ge  Ge82      1.0  0.95131  0.8947799999999999  0.25  0.7120
  Ge  Ge83      1.0  0.04869  0.8947799999999999  0.25  0.7120
  Ge  Ge84      1.0  0.95131  0.10522  0.75  0.7120
  Ge  Ge85      1.0  0.54869  0.60522  0.75  0.7120
  Ge  Ge86      1.0  0.45131  0.39478  0.25  0.7120
  Ge  Ge87      1.0  0.54869  0.39478  0.25  0.7120
  Ge  Ge88      1.0  0.45131  0.60522  0.75  0.7120
  Si  Si1       1.0  0.22996  0.32137  0.6095600000000001  0.7820
  Si  Si2       1.0  0.7700400000000001  0.6786300000000001  0.1095600000000001  0.7820
  Si  Si3       1.0  0.22996  0.6786300000000001  0.3904399999999999  0.7820
  Si  Si4       1.0  0.7700400000000001  0.32137  0.89044  0.7820
  Si  Si5       1.0  0.7299599999999999  0.8213699999999998  0.6095600000000001  0.7820
  Si  Si6       1.0  0.27004  0.17863  0.1095600000000001  0.7820
  Si  Si7       1.0  0.7299599999999999  0.17863  0.3904399999999999  0.7820
  Si  Si8       1.0  0.27004  0.8213699999999998  0.89044  0.7820
  Si  Si9       1.0  0.7700400000000001  0.6786300000000001  0.3904399999999999  0.7820
  Si  Si10      1.0  0.22996  0.32137  0.89044  0.7820
  Si  Si11      1.0  0.7700400000000001  0.32137  0.6095600000000001  0.7820
  Si  Si12      1.0  0.22996  0.6786300000000001  0.1095600000000001  0.7820
  Si  Si13      1.0  0.27004  0.17863  0.3904399999999999  0.7820
  Si  Si14      1.0  0.7299599999999999  0.8213699999999998  0.89044  0.7820
  Si  Si15      1.0  0.27004  0.8213699999999998  0.6095600000000001  0.7820
  Si  Si16      1.0  0.7299599999999999  0.17863  0.1095600000000001  0.7820
  O   O1        1.0  0.1896  0.0465  0.6650000000000001  1.0000
  O   O2        1.0  0.8104  0.9535  0.16500000000000004  1.0000
  O   O3        1.0  0.1896  0.9535  0.33499999999999985  1.0000
  O   O4        1.0  0.8104  0.0465  0.835  1.0000
  O   O5        1.0  0.6896  0.5465  0.6650000000000001  1.0000
  O   O6        1.0  0.3104  0.4535  0.16500000000000004  1.0000
  O   O7        1.0  0.6896  0.4535  0.33499999999999985  1.0000
  O   O8        1.0  0.3104  0.5465  0.835  1.0000
  O   O9        1.0  0.8104  0.9535  0.33499999999999985  1.0000
  O   O10       1.0  0.1896  0.0465  0.835  1.0000
  O   O11       1.0  0.8104  0.0465  0.6650000000000001  1.0000
  O   O12       1.0  0.1896  0.9535  0.16500000000000004  1.0000
  O   O13       1.0  0.3104  0.4535  0.33499999999999985  1.0000
  O   O14       1.0  0.6896  0.5465  0.835  1.0000
  O   O15       1.0  0.3104  0.5465  0.6650000000000001  1.0000
  O   O16       1.0  0.6896  0.4535  0.16500000000000004  1.0000
  O   O17       1.0  0.13132  0.0932  0.75  1.0000
  O   O18       1.0  0.86868  0.9068  0.25  1.0000
  O   O19       1.0  0.13132  0.9068  0.25  1.0000
  O   O20       1.0  0.86868  0.0932  0.75  1.0000
  O   O21       1.0  0.63132  0.5932  0.75  1.0000
  O   O22       1.0  0.36868  0.4068  0.25  1.0000
  O   O23       1.0  0.63132  0.4068  0.25  1.0000
  O   O24       1.0  0.36868  0.5932  0.75  1.0000
  O   O25       1.0  0.19597  0.1553  0.75  1.0000
  O   O26       1.0  0.80403  0.8446999999999999  0.25  1.0000
  O   O27       1.0  0.19597  0.8446999999999999  0.25  1.0000
  O   O28       1.0  0.80403  0.1553  0.75  1.0000
  O   O29       1.0  0.6959699999999999  0.6553  0.75  1.0000
  O   O30       1.0  0.30403  0.3447  0.25  1.0000
  O   O31       1.0  0.6959699999999999  0.3447  0.25  1.0000
  O   O32       1.0  0.30403  0.6553  0.75  1.0000
  O   O33       1.0  0.12965  0.0965  0.5655  1.0000
  O   O34       1.0  0.87035  0.9034999999999999  0.06550000000000011  1.0000
  O   O35       1.0  0.12965  0.9034999999999999  0.43450000000000005  1.0000
  O   O36       1.0  0.87035  0.0965  0.9345000000000001  1.0000
  O   O37       1.0  0.6296499999999999  0.5965  0.5655  1.0000
  O   O38       1.0  0.37035  0.40349999999999997  0.06550000000000011  1.0000
  O   O39       1.0  0.6296499999999999  0.40349999999999997  0.43450000000000005  1.0000
  O   O40       1.0  0.37035  0.5965  0.9345000000000001  1.0000
  O   O41       1.0  0.87035  0.9034999999999999  0.43450000000000005  1.0000
  O   O42       1.0  0.12965  0.0965  0.9345000000000001  1.0000
  O   O43       1.0  0.87035  0.0965  0.5655  1.0000
  O   O44       1.0  0.12965  0.9034999999999999  0.06550000000000011  1.0000
  O   O45       1.0  0.37035  0.40349999999999997  0.43450000000000005  1.0000
  O   O46       1.0  0.6296499999999999  0.5965  0.9345000000000001  1.0000
  O   O47       1.0  0.37035  0.5965  0.5655  1.0000
  O   O48       1.0  0.6296499999999999  0.40349999999999997  0.06550000000000011  1.0000
  O   O49       1.0  0.12244  0.9726999999999999  0.6592  1.0000
  O   O50       1.0  0.87756  0.0273  0.1592  1.0000
  O   O51       1.0  0.12244  0.0273  0.34080000000000005  1.0000
  O   O52       1.0  0.87756  0.9726999999999999  0.8408  1.0000
  O   O53       1.0  0.62244  0.4727  0.6592  1.0000
  O   O54       1.0  0.37756  0.5273  0.1592  1.0000
  O   O55       1.0  0.62244  0.5273  0.34080000000000005  1.0000
  O   O56       1.0  0.37756  0.4727  0.8408  1.0000
  O   O57       1.0  0.87756  0.0273  0.34080000000000005  1.0000
  O   O58       1.0  0.12244  0.9726999999999999  0.8408  1.0000
  O   O59       1.0  0.87756  0.9726999999999999  0.6592  1.0000
  O   O60       1.0  0.12244  0.0273  0.1592  1.0000
  O   O61       1.0  0.37756  0.5273  0.34080000000000005  1.0000
  O   O62       1.0  0.62244  0.4727  0.8408  1.0000
  O   O63       1.0  0.37756  0.4727  0.6592  1.0000
  O   O64       1.0  0.62244  0.5273  0.1592  1.0000
  O   O65       1.0  0.19628  0.1619  0.5649000000000002  1.0000
  O   O66       1.0  0.80372  0.8381000000000001  0.06490000000000018  1.0000
  O   O67       1.0  0.19628  0.8381000000000001  0.43509999999999993  1.0000
  O   O68       1.0  0.80372  0.1619  0.9350999999999999  1.0000
  O   O69       1.0  0.6962799999999999  0.6618999999999999  0.5649000000000002  1.0000
  O   O70       1.0  0.30372  0.3381  0.06490000000000018  1.0000
  O   O71       1.0  0.6962799999999999  0.3381  0.43509999999999993  1.0000
  O   O72       1.0  0.30372  0.6618999999999999  0.9350999999999999  1.0000
  O   O73       1.0  0.80372  0.8381000000000001  0.43509999999999993  1.0000
  O   O74       1.0  0.19628  0.1619  0.9350999999999999  1.0000
  O   O75       1.0  0.80372  0.1619  0.5649000000000002  1.0000
  O   O76       1.0  0.19628  0.8381000000000001  0.06490000000000018  1.0000
  O   O77       1.0  0.30372  0.3381  0.43509999999999993  1.0000
  O   O78       1.0  0.6962799999999999  0.6618999999999999  0.9350999999999999  1.0000
  O   O79       1.0  0.30372  0.6618999999999999  0.5649000000000002  1.0000
  O   O80       1.0  0.6962799999999999  0.3381  0.06490000000000018  1.0000
  O   O81       1.0  0.26031  0.11059999999999999  0.6605  1.0000
  O   O82       1.0  0.73969  0.8894  0.16049999999999986  1.0000
  O   O83       1.0  0.26031  0.8894  0.3395000000000001  1.0000
  O   O84       1.0  0.73969  0.11059999999999999  0.8395  1.0000
  O   O85       1.0  0.76031  0.6106  0.6605  1.0000
  O   O86       1.0  0.23969  0.3894  0.16049999999999986  1.0000
  O   O87       1.0  0.76031  0.3894  0.3395000000000001  1.0000
  O   O88       1.0  0.23969  0.6106  0.8395  1.0000
  O   O89       1.0  0.73969  0.8894  0.3395000000000001  1.0000
  O   O90       1.0  0.26031  0.11059999999999999  0.8395  1.0000
  O   O91       1.0  0.73969  0.11059999999999999  0.6605  1.0000
  O   O92       1.0  0.26031  0.8894  0.16049999999999986  1.0000
  O   O93       1.0  0.23969  0.3894  0.3395000000000001  1.0000
  O   O94       1.0  0.76031  0.6106  0.8395  1.0000
  O   O95       1.0  0.23969  0.6106  0.6605  1.0000
  O   O96       1.0  0.76031  0.3894  0.16049999999999986  1.0000
  O   O97       1.0  0.13611  0.2124  0.6552000000000002  1.0000
  O   O98       1.0  0.86389  0.7876  0.15520000000000023  1.0000
  O   O99       1.0  0.13611  0.7876  0.3447999999999999  1.0000
  O   O100      1.0  0.86389  0.2124  0.8447999999999999  1.0000
  O   O101      1.0  0.63611  0.7124  0.6552000000000002  1.0000
  O   O102      1.0  0.36389  0.28759999999999997  0.15520000000000023  1.0000
  O   O103      1.0  0.63611  0.28759999999999997  0.3447999999999999  1.0000
  O   O104      1.0  0.36389  0.7124  0.8447999999999999  1.0000
  O   O105      1.0  0.86389  0.7876  0.3447999999999999  1.0000
  O   O106      1.0  0.13611  0.2124  0.8447999999999999  1.0000
  O   O107      1.0  0.86389  0.2124  0.6552000000000002  1.0000
  O   O108      1.0  0.13611  0.7876  0.15520000000000023  1.0000
  O   O109      1.0  0.36389  0.28759999999999997  0.3447999999999999  1.0000
  O   O110      1.0  0.63611  0.7124  0.8447999999999999  1.0000
  O   O111      1.0  0.36389  0.7124  0.6552000000000002  1.0000
  O   O112      1.0  0.63611  0.28759999999999997  0.15520000000000023  1.0000
  O   O113      1.0  0.1826  0.9244  0.75  1.0000
  O   O114      1.0  0.8173999999999999  0.0756  0.25  1.0000
  O   O115      1.0  0.1826  0.0756  0.25  1.0000
  O   O116      1.0  0.8173999999999999  0.9244  0.75  1.0000
  O   O117      1.0  0.6826  0.4244  0.75  1.0000
  O   O118      1.0  0.3174  0.5756  0.25  1.0000
  O   O119      1.0  0.6826  0.5756  0.25  1.0000
  O   O120      1.0  0.3174  0.4244  0.75  1.0000
  O   O121      1.0  0.25406  0.9958999999999999  0.75  1.0000
  O   O122      1.0  0.74594  0.0041  0.25  1.0000
  O   O123      1.0  0.25406  0.0041  0.25  1.0000
  O   O124      1.0  0.74594  0.9958999999999999  0.75  1.0000
  O   O125      1.0  0.7540599999999998  0.4959  0.75  1.0000
  O   O126      1.0  0.24594  0.5041  0.25  1.0000
  O   O127      1.0  0.7540599999999998  0.5041  0.25  1.0000
  O   O128      1.0  0.24594  0.4959  0.75  1.0000
  O   O129      1.0  0.05726  0.061700000000000005  0.6523  1.0000
  O   O130      1.0  0.94274  0.9383  0.15229999999999988  1.0000
  O   O131      1.0  0.05726  0.9383  0.3477  1.0000
  O   O132      1.0  0.94274  0.061700000000000005  0.8477000000000001  1.0000
  O   O133      1.0  0.55726  0.5617  0.6523  1.0000
  O   O134      1.0  0.44274  0.4383  0.15229999999999988  1.0000
  O   O135      1.0  0.55726  0.4383  0.3477  1.0000
  O   O136      1.0  0.44274  0.5617  0.8477000000000001  1.0000
  O   O137      1.0  0.94274  0.9383  0.3477  1.0000
  O   O138      1.0  0.05726  0.061700000000000005  0.8477000000000001  1.0000
  O   O139      1.0  0.94274  0.061700000000000005  0.6523  1.0000
  O   O140      1.0  0.05726  0.9383  0.15229999999999988  1.0000
  O   O141      1.0  0.44274  0.4383  0.3477  1.0000
  O   O142      1.0  0.55726  0.5617  0.8477000000000001  1.0000
  O   O143      1.0  0.44274  0.5617  0.6523  1.0000
  O   O144      1.0  0.55726  0.4383  0.15229999999999988  1.0000
  O   O145      1.0  0.0786  0.0  0.5  1.0000
  O   O146      1.0  0.9214  0.0  0.0  1.0000
  O   O147      1.0  0.5786  0.5  0.5  1.0000
  O   O148      1.0  0.4214  0.5  0.0  1.0000
  O   O149      1.0  0.9214  0.0  0.5  1.0000
  O   O150      1.0  0.0786  0.0  0.0  1.0000
  O   O151      1.0  0.4214  0.5  0.5  1.0000
  O   O152      1.0  0.5786  0.5  0.0  1.0000
  O   O153      1.0  0.25346  0.2505  0.6262000000000002  1.0000
  O   O154      1.0  0.74654  0.7495  0.1262000000000001  1.0000
  O   O155      1.0  0.25346  0.7495  0.37379999999999997  1.0000
  O   O156      1.0  0.74654  0.2505  0.8737999999999999  1.0000
  O   O157      1.0  0.75346  0.7505  0.6262000000000002  1.0000
  O   O158      1.0  0.24653999999999998  0.24949999999999997  0.1262000000000001  1.0000
  O   O159      1.0  0.75346  0.24949999999999997  0.37379999999999997  1.0000
  O   O160      1.0  0.24653999999999998  0.7505  0.8737999999999999  1.0000
  O   O161      1.0  0.74654  0.7495  0.37379999999999997  1.0000
  O   O162      1.0  0.25346  0.2505  0.8737999999999999  1.0000
  O   O163      1.0  0.74654  0.2505  0.6262000000000002  1.0000
  O   O164      1.0  0.25346  0.7495  0.1262000000000001  1.0000
  O   O165      1.0  0.24653999999999998  0.24949999999999997  0.37379999999999997  1.0000
  O   O166      1.0  0.75346  0.7505  0.8737999999999999  1.0000
  O   O167      1.0  0.24653999999999998  0.7505  0.6262000000000002  1.0000
  O   O168      1.0  0.75346  0.24949999999999997  0.1262000000000001  1.0000
  O   O169      1.0  0.2714  0.1602  0.4957  1.0000
  O   O170      1.0  0.7286  0.8398  0.9957  1.0000
  O   O171      1.0  0.2714  0.8398  0.5043  1.0000
  O   O172      1.0  0.7286  0.1602  0.004300000000000027  1.0000
  O   O173      1.0  0.7713999999999999  0.6602  0.4957  1.0000
  O   O174      1.0  0.22860000000000003  0.3398  0.9957  1.0000
  O   O175      1.0  0.7713999999999999  0.3398  0.5043  1.0000
  O   O176      1.0  0.22860000000000003  0.6602  0.004300000000000027  1.0000
  O   O177      1.0  0.7286  0.8398  0.5043  1.0000
  O   O178      1.0  0.2714  0.1602  0.004300000000000027  1.0000
  O   O179      1.0  0.7286  0.1602  0.4957  1.0000
  O   O180      1.0  0.2714  0.8398  0.9957  1.0000
  O   O181      1.0  0.22860000000000003  0.3398  0.5043  1.0000
  O   O182      1.0  0.7713999999999999  0.6602  0.004300000000000027  1.0000
  O   O183      1.0  0.22860000000000003  0.6602  0.4957  1.0000
  O   O184      1.0  0.7713999999999999  0.3398  0.9957  1.0000
  O   O185      1.0  0.0647  0.187  0.75  1.0000
  O   O186      1.0  0.9353  0.813  0.25  1.0000
  O   O187      1.0  0.0647  0.813  0.25  1.0000
  O   O188      1.0  0.9353  0.187  0.75  1.0000
  O   O189      1.0  0.5647  0.687  0.75  1.0000
  O   O190      1.0  0.43529999999999996  0.313  0.25  1.0000
  O   O191      1.0  0.5647  0.313  0.25  1.0000
  O   O192      1.0  0.43529999999999996  0.687  0.75  1.0000
  O   O193      1.0  0.09469999999999998  0.3121  0.75  1.0000
  O   O194      1.0  0.9053  0.6879  0.25  1.0000
  O   O195      1.0  0.09469999999999998  0.6879  0.25  1.0000
  O   O196      1.0  0.9053  0.3121  0.75  1.0000
  O   O197      1.0  0.5947  0.8120999999999999  0.75  1.0000
  O   O198      1.0  0.40529999999999994  0.1879  0.25  1.0000
  O   O199      1.0  0.5947  0.1879  0.25  1.0000
  O   O200      1.0  0.40529999999999994  0.8120999999999999  0.75  1.0000
  O   O201      1.0  0.244  0.8795999999999999  0.6564  1.0000
  O   O202      1.0  0.756  0.12040000000000001  0.1564000000000001  1.0000
  O   O203      1.0  0.244  0.12040000000000001  0.3436  1.0000
  O   O204      1.0  0.756  0.8795999999999999  0.8436  1.0000
  O   O205      1.0  0.7439999999999999  0.3796  0.6564  1.0000
  O   O206      1.0  0.256  0.6204000000000001  0.1564000000000001  1.0000
  O   O207      1.0  0.7439999999999999  0.6204000000000001  0.3436  1.0000
  O   O208      1.0  0.256  0.3796  0.8436  1.0000
  O   O209      1.0  0.756  0.12040000000000001  0.3436  1.0000
  O   O210      1.0  0.244  0.8795999999999999  0.8436  1.0000
  O   O211      1.0  0.756  0.8795999999999999  0.6564  1.0000
  O   O212      1.0  0.244  0.12040000000000001  0.1564000000000001  1.0000
  O   O213      1.0  0.256  0.6204000000000001  0.3436  1.0000
  O   O214      1.0  0.7439999999999999  0.3796  0.8436  1.0000
  O   O215      1.0  0.256  0.3796  0.6564  1.0000
  O   O216      1.0  0.7439999999999999  0.6204000000000001  0.1564000000000001  1.0000
  O   O217      1.0  0.0  0.11719999999999998  0.75  1.0000
  O   O218      1.0  0.0  0.8828  0.25  1.0000
  O   O219      1.0  0.5  0.6172  0.75  1.0000
  O   O220      1.0  0.5  0.38280000000000003  0.25  1.0000
  O   O221      1.0  0.18639999999999995  0.321  0.6453  1.0000
  O   O222      1.0  0.8136  0.679  0.14529999999999998  1.0000
  O   O223      1.0  0.18639999999999995  0.679  0.3547  1.0000
  O   O224      1.0  0.8136  0.321  0.8547  1.0000
  O   O225      1.0  0.6864  0.821  0.6453  1.0000
  O   O226      1.0  0.3136  0.179  0.14529999999999998  1.0000
  O   O227      1.0  0.6864  0.179  0.3547  1.0000
  O   O228      1.0  0.3136  0.821  0.8547  1.0000
  O   O229      1.0  0.8136  0.679  0.3547  1.0000
  O   O230      1.0  0.18639999999999995  0.321  0.8547  1.0000
  O   O231      1.0  0.8136  0.321  0.6453  1.0000
  O   O232      1.0  0.18639999999999995  0.679  0.14529999999999998  1.0000
  O   O233      1.0  0.3136  0.179  0.3547  1.0000
  O   O234      1.0  0.6864  0.821  0.8547  1.0000
  O   O235      1.0  0.3136  0.821  0.6453  1.0000
  O   O236      1.0  0.6864  0.179  0.14529999999999998  1.0000
  N   N1        1.0  0.2183  0.0  0.5  1.0000
  N   N2        1.0  0.7817000000000001  0.0  0.0  1.0000
  N   N3        1.0  0.7182999999999999  0.5  0.5  1.0000
  N   N4        1.0  0.2817  0.5  0.0  1.0000
  N   N5        1.0  0.7817000000000001  0.0  0.5  1.0000
  N   N6        1.0  0.2183  0.0  0.0  1.0000
  N   N7        1.0  0.2817  0.5  0.5  1.0000
  N   N8        1.0  0.7182999999999999  0.5  0.0  1.0000
  N   N9        1.0  0.1515  0.1596  0.3995  1.0000
  N   N10       1.0  0.8485  0.8403999999999999  0.8995  1.0000
  N   N11       1.0  0.1515  0.8403999999999999  0.6005  1.0000
  N   N12       1.0  0.8485  0.1596  0.10049999999999998  1.0000
  N   N13       1.0  0.6515  0.6596  0.3995  1.0000
  N   N14       1.0  0.34850000000000003  0.34040000000000004  0.8995  1.0000
  N   N15       1.0  0.6515  0.34040000000000004  0.6005  1.0000
  N   N16       1.0  0.34850000000000003  0.6596  0.10049999999999998  1.0000
  N   N17       1.0  0.8485  0.8403999999999999  0.6005  1.0000
  N   N18       1.0  0.1515  0.1596  0.10049999999999998  1.0000
  N   N19       1.0  0.8485  0.1596  0.3995  1.0000
  N   N20       1.0  0.1515  0.8403999999999999  0.8995  1.0000
  N   N21       1.0  0.34850000000000003  0.34040000000000004  0.6005  1.0000
  N   N22       1.0  0.6515  0.6596  0.10049999999999998  1.0000
  N   N23       1.0  0.34850000000000003  0.6596  0.3995  1.0000
  N   N24       1.0  0.6515  0.34040000000000004  0.8995  1.0000
  N   N25       1.0  0.32569999999999993  0.2522  0.75  1.0000
  N   N26       1.0  0.6743  0.7478  0.25  1.0000
  N   N27       1.0  0.32569999999999993  0.7478  0.25  1.0000
  N   N28       1.0  0.6743  0.2522  0.75  1.0000
  N   N29       1.0  0.8256999999999999  0.7522  0.75  1.0000
  N   N30       1.0  0.17430000000000007  0.24780000000000002  0.25  1.0000
  N   N31       1.0  0.8256999999999999  0.24780000000000002  0.25  1.0000
  N   N32       1.0  0.17430000000000007  0.7522  0.75  1.0000
  Si  Si17      1.0  0.09876  0.03334  0.59729  0.1040
  Si  Si18      1.0  0.90124  0.96666  0.09729000000000011  0.1040
  Si  Si19      1.0  0.09876  0.96666  0.40271  0.1040
  Si  Si20      1.0  0.90124  0.03334  0.9027100000000001  0.1040
  Si  Si21      1.0  0.59876  0.53334  0.59729  0.1040
  Si  Si22      1.0  0.40123999999999993  0.46666  0.09729000000000011  0.1040
  Si  Si23      1.0  0.59876  0.46666  0.40271  0.1040
  Si  Si24      1.0  0.40123999999999993  0.53334  0.9027100000000001  0.1040
  Si  Si25      1.0  0.90124  0.96666  0.40271  0.1040
  Si  Si26      1.0  0.09876  0.03334  0.9027100000000001  0.1040
  Si  Si27      1.0  0.90124  0.03334  0.59729  0.1040
  Si  Si28      1.0  0.09876  0.96666  0.09729000000000011  0.1040
  Si  Si29      1.0  0.40123999999999993  0.46666  0.40271  0.1040
  Si  Si30      1.0  0.59876  0.53334  0.9027100000000001  0.1040
  Si  Si31      1.0  0.40123999999999993  0.53334  0.59729  0.1040
  Si  Si32      1.0  0.59876  0.46666  0.09729000000000011  0.1040
  Si  Si33      1.0  0.24445  0.17059  0.5902500000000002  0.2740
  Si  Si34      1.0  0.7555499999999998  0.82941  0.09025000000000016  0.2740
  Si  Si35      1.0  0.24445  0.82941  0.40974999999999984  0.2740
  Si  Si36      1.0  0.7555499999999998  0.17059  0.90975  0.2740
  Si  Si37      1.0  0.7444500000000001  0.67059  0.5902500000000002  0.2740
  Si  Si38      1.0  0.25555  0.32941  0.09025000000000016  0.2740
  Si  Si39      1.0  0.7444500000000001  0.32941  0.40974999999999984  0.2740
  Si  Si40      1.0  0.25555  0.67059  0.90975  0.2740
  Si  Si41      1.0  0.7555499999999998  0.82941  0.40974999999999984  0.2740
  Si  Si42      1.0  0.24445  0.17059  0.90975  0.2740
  Si  Si43      1.0  0.7555499999999998  0.17059  0.5902500000000002  0.2740
  Si  Si44      1.0  0.24445  0.82941  0.09025000000000016  0.2740
  Si  Si45      1.0  0.25555  0.32941  0.40974999999999984  0.2740
  Si  Si46      1.0  0.7444500000000001  0.67059  0.90975  0.2740
  Si  Si47      1.0  0.25555  0.67059  0.5902500000000002  0.2740
  Si  Si48      1.0  0.7444500000000001  0.32941  0.09025000000000016  0.2740
  Si  Si49      1.0  0.10865999999999998  0.22873999999999997  0.75  0.2010
  Si  Si50      1.0  0.8913399999999999  0.7712600000000001  0.25  0.2010
  Si  Si51      1.0  0.10865999999999998  0.7712600000000001  0.25  0.2010
  Si  Si52      1.0  0.8913399999999999  0.22873999999999997  0.75  0.2010
  Si  Si53      1.0  0.60866  0.7287399999999999  0.75  0.2010
  Si  Si54      1.0  0.39134  0.27126000000000006  0.25  0.2010
  Si  Si55      1.0  0.60866  0.27126000000000006  0.25  0.2010
  Si  Si56      1.0  0.39134  0.7287399999999999  0.75  0.2010
  Si  Si57      1.0  0.23156  0.9218  0.75  0.3000
  Si  Si58      1.0  0.76844  0.0782  0.25  0.3000
  Si  Si59      1.0  0.23156  0.0782  0.25  0.3000
  Si  Si60      1.0  0.76844  0.9218  0.75  0.3000
  Si  Si61      1.0  0.73156  0.4218  0.75  0.3000
  Si  Si62      1.0  0.26844  0.5782  0.25  0.3000
  Si  Si63      1.0  0.73156  0.5782  0.25  0.3000
  Si  Si64      1.0  0.26844  0.4218  0.75  0.3000
  Si  Si65      1.0  0.04869  0.10522  0.75  0.2880
  Si  Si66      1.0  0.95131  0.8947799999999999  0.25  0.2880
  Si  Si67      1.0  0.04869  0.8947799999999999  0.25  0.2880
  Si  Si68      1.0  0.95131  0.10522  0.75  0.2880
  Si  Si69      1.0  0.54869  0.60522  0.75  0.2880
  Si  Si70      1.0  0.45131  0.39478  0.25  0.2880
  Si  Si71      1.0  0.54869  0.39478  0.25  0.2880
  Si  Si72      1.0  0.45131  0.60522  0.75  0.2880
  Ge  Ge89      1.0  0.22996  0.32137  0.6095600000000001  0.2180
  Ge  Ge90      1.0  0.7700400000000001  0.6786300000000001  0.1095600000000001  0.2180
  Ge  Ge91      1.0  0.22996  0.6786300000000001  0.3904399999999999  0.2180
  Ge  Ge92      1.0  0.7700400000000001  0.32137  0.89044  0.2180
  Ge  Ge93      1.0  0.7299599999999999  0.8213699999999998  0.6095600000000001  0.2180
  Ge  Ge94      1.0  0.27004  0.17863  0.1095600000000001  0.2180
  Ge  Ge95      1.0  0.7299599999999999  0.17863  0.3904399999999999  0.2180
  Ge  Ge96      1.0  0.27004  0.8213699999999998  0.89044  0.2180
  Ge  Ge97      1.0  0.7700400000000001  0.6786300000000001  0.3904399999999999  0.2180
  Ge  Ge98      1.0  0.22996  0.32137  0.89044  0.2180
  Ge  Ge99      1.0  0.7700400000000001  0.32137  0.6095600000000001  0.2180
  Ge  Ge100     1.0  0.22996  0.6786300000000001  0.1095600000000001  0.2180
  Ge  Ge101     1.0  0.27004  0.17863  0.3904399999999999  0.2180
  Ge  Ge102     1.0  0.7299599999999999  0.8213699999999998  0.89044  0.2180
  Ge  Ge103     1.0  0.27004  0.8213699999999998  0.6095600000000001  0.2180
  Ge  Ge104     1.0  0.7299599999999999  0.17863  0.1095600000000001  0.2180
