data_image0
_chemical_formula_structural       Co2As4
_chemical_formula_sum              "Co2 As4"
_cell_length_a       5.0669
_cell_length_b       5.8739
_cell_length_c       3.1346
_cell_angle_alpha    90.0
_cell_angle_beta     90.0
_cell_angle_gamma    90.0

_space_group_name_H-M_alt    "P 1"
_space_group_IT_number       1

loop_
  _space_group_symop_operation_xyz
  'x, y, z'

loop_
  _atom_site_type_symbol
  _atom_site_label
  _atom_site_symmetry_multiplicity
  _atom_site_fract_x
  _atom_site_fract_y
  _atom_site_fract_z
  _atom_site_occupancy
  Co  Co1       1.0  0.0  0.0  0.0  1.0000
  Co  Co2       1.0  0.5  0.5  0.5  1.0000
  As  As1       1.0  0.18637  0.36589  0.0  1.0000
  As  As2       1.0  0.81363  0.63411  0.0  1.0000
  As  As3       1.0  0.31362999999999996  0.8658900000000002  0.5  1.0000
  As  As4       1.0  0.68637  0.13411  0.5  1.0000
