data_image0
_chemical_formula_structural       Fe4O20Se4
_chemical_formula_sum              "Fe4 O20 Se4"
_cell_length_a       7.14
_cell_length_b       8.05
_cell_length_c       7.84
_cell_angle_alpha    90.0
_cell_angle_beta     118.09999999999998
_cell_angle_gamma    90.0

_space_group_name_H-M_alt    "P 1"
_space_group_IT_number       1

loop_
  _space_group_symop_operation_xyz
  'x, y, z'

loop_
  _atom_site_type_symbol
  _atom_site_label
  _atom_site_symmetry_multiplicity
  _atom_site_fract_x
  _atom_site_fract_y
  _atom_site_fract_z
  _atom_site_occupancy
  Fe  Fe1       1.0  0.0  0.5  0.0  1.0000
  Fe  Fe2       1.0  0.0  0.5  0.5  1.0000
  Fe  Fe3       1.0  0.5  0.0  0.0  1.0000
  Fe  Fe4       1.0  0.5  0.0  0.5  1.0000
  O   O1        1.0  0.18230000000000005  0.044099999999999986  0.4160000000000001  1.0000
  O   O2        1.0  0.8177  0.044099999999999986  0.08399999999999998  1.0000
  O   O3        1.0  0.6823  0.5441  0.4160000000000001  1.0000
  O   O4        1.0  0.3177  0.5441  0.08399999999999998  1.0000
  O   O5        1.0  0.8177000000000001  0.9559  0.5840000000000001  1.0000
  O   O6        1.0  0.18230000000000007  0.9559  0.9160000000000001  1.0000
  O   O7        1.0  0.31770000000000004  0.4559  0.5840000000000001  1.0000
  O   O8        1.0  0.6823  0.4559  0.9160000000000001  1.0000
  O   O9        1.0  0.11199999999999997  0.2769  0.1525  1.0000
  O   O10       1.0  0.888  0.2769  0.34750000000000003  1.0000
  O   O11       1.0  0.612  0.7768999999999998  0.1525  1.0000
  O   O12       1.0  0.388  0.7768999999999998  0.34750000000000003  1.0000
  O   O13       1.0  0.888  0.7231000000000001  0.8475000000000001  1.0000
  O   O14       1.0  0.11199999999999999  0.7231000000000001  0.6525  1.0000
  O   O15       1.0  0.38800000000000007  0.22310000000000002  0.8475000000000001  1.0000
  O   O16       1.0  0.612  0.22310000000000002  0.6525  1.0000
  O   O17       1.0  0.0  0.6354  0.25  1.0000
  O   O18       1.0  0.5  0.13539999999999996  0.25  1.0000
  O   O19       1.0  0.0  0.36460000000000004  0.75  1.0000
  O   O20       1.0  0.49999999999999994  0.8645999999999999  0.75  1.0000
  Se  Se1       1.0  0.0  0.16009999999999994  0.25  1.0000
  Se  Se2       1.0  0.5  0.6600999999999998  0.25  1.0000
  Se  Se3       1.0  0.0  0.8399000000000001  0.75  1.0000
  Se  Se4       1.0  0.49999999999999994  0.3399  0.75  1.0000
