data_image0
_chemical_formula_structural       Bi16Te8O40
_chemical_formula_sum              "Bi16 Te8 O40"
_cell_length_a       11.5727
_cell_length_b       16.458
_cell_length_c       5.5245
_cell_angle_alpha    90.0
_cell_angle_beta     90.0
_cell_angle_gamma    90.0

_space_group_name_H-M_alt    "P 1"
_space_group_IT_number       1

loop_
  _space_group_symop_operation_xyz
  'x, y, z'

loop_
  _atom_site_type_symbol
  _atom_site_label
  _atom_site_symmetry_multiplicity
  _atom_site_fract_x
  _atom_site_fract_y
  _atom_site_fract_z
  _atom_site_occupancy
  Bi  Bi1       1.0  0.39139  0.0851  0.4856  1.0000
  Bi  Bi2       1.0  0.60861  0.9149  0.4856  1.0000
  Bi  Bi3       1.0  0.39139  0.4149  0.4856  1.0000
  Bi  Bi4       1.0  0.60861  0.5851  0.4856  1.0000
  Bi  Bi5       1.0  0.39139  0.5851  0.9855999999999999  1.0000
  Bi  Bi6       1.0  0.60861  0.4149  0.9855999999999999  1.0000
  Bi  Bi7       1.0  0.39139  0.9149  0.9855999999999999  1.0000
  Bi  Bi8       1.0  0.60861  0.0851  0.9855999999999999  1.0000
  Bi  Bi9       1.0  0.1245  0.25  0.501  1.0000
  Bi  Bi10      1.0  0.8755  0.75  0.501  1.0000
  Bi  Bi11      1.0  0.1245  0.75  0.0009999999999998896  1.0000
  Bi  Bi12      1.0  0.8755  0.25  0.0009999999999998896  1.0000
  Bi  Bi13      1.0  0.37665  0.25  0.0243  1.0000
  Bi  Bi14      1.0  0.6233500000000001  0.75  0.0243  1.0000
  Bi  Bi15      1.0  0.37665  0.75  0.5243  1.0000
  Bi  Bi16      1.0  0.6233500000000001  0.25  0.5243  1.0000
  Te  Te1       1.0  0.13264  0.08081  0.9859  1.0000
  Te  Te2       1.0  0.86736  0.91919  0.9859  1.0000
  Te  Te3       1.0  0.13264  0.41919  0.9859  1.0000
  Te  Te4       1.0  0.86736  0.58081  0.9859  1.0000
  Te  Te5       1.0  0.13264  0.58081  0.48589999999999994  1.0000
  Te  Te6       1.0  0.86736  0.41919  0.48589999999999994  1.0000
  Te  Te7       1.0  0.13264  0.91919  0.48589999999999994  1.0000
  Te  Te8       1.0  0.86736  0.08081  0.48589999999999994  1.0000
  O   O1        1.0  0.26439999999999997  0.0434  0.14899999999999997  1.0000
  O   O2        1.0  0.7356  0.9566  0.14899999999999997  1.0000
  O   O3        1.0  0.26439999999999997  0.4566  0.14899999999999997  1.0000
  O   O4        1.0  0.7356  0.5434  0.14899999999999997  1.0000
  O   O5        1.0  0.26439999999999997  0.5434  0.649  1.0000
  O   O6        1.0  0.7356  0.4566  0.649  1.0000
  O   O7        1.0  0.26439999999999997  0.9566  0.649  1.0000
  O   O8        1.0  0.7356  0.0434  0.649  1.0000
  O   O9        1.0  0.5  0.0  0.2919999999999999  1.0000
  O   O10       1.0  0.5  0.5  0.2919999999999999  1.0000
  O   O11       1.0  0.5  0.5  0.7919999999999999  1.0000
  O   O12       1.0  0.5  0.0  0.7919999999999999  1.0000
  O   O13       1.0  0.0691  0.1471  0.222  1.0000
  O   O14       1.0  0.9309  0.8529  0.222  1.0000
  O   O15       1.0  0.0691  0.3529  0.222  1.0000
  O   O16       1.0  0.9309  0.6471  0.222  1.0000
  O   O17       1.0  0.0691  0.6471  0.7219999999999999  1.0000
  O   O18       1.0  0.9309  0.3529  0.7219999999999999  1.0000
  O   O19       1.0  0.0691  0.8529  0.7219999999999999  1.0000
  O   O20       1.0  0.9309  0.1471  0.7219999999999999  1.0000
  O   O21       1.0  0.29  0.25  0.366  1.0000
  O   O22       1.0  0.71  0.75  0.366  1.0000
  O   O23       1.0  0.29  0.75  0.866  1.0000
  O   O24       1.0  0.71  0.25  0.866  1.0000
  O   O25       1.0  0.47829999999999995  0.1604  0.20099999999999998  1.0000
  O   O26       1.0  0.5217  0.8396  0.20099999999999998  1.0000
  O   O27       1.0  0.47829999999999995  0.3396  0.20099999999999998  1.0000
  O   O28       1.0  0.5217  0.6604  0.20099999999999998  1.0000
  O   O29       1.0  0.47829999999999995  0.6604  0.701  1.0000
  O   O30       1.0  0.5217  0.3396  0.701  1.0000
  O   O31       1.0  0.47829999999999995  0.8396  0.701  1.0000
  O   O32       1.0  0.5217  0.1604  0.701  1.0000
  O   O33       1.0  0.2042  0.1574  0.783  1.0000
  O   O34       1.0  0.7958000000000001  0.8426  0.783  1.0000
  O   O35       1.0  0.2042  0.3426  0.783  1.0000
  O   O36       1.0  0.7958000000000001  0.6574  0.783  1.0000
  O   O37       1.0  0.2042  0.6574  0.2829999999999999  1.0000
  O   O38       1.0  0.7958000000000001  0.3426  0.2829999999999999  1.0000
  O   O39       1.0  0.2042  0.8426  0.2829999999999999  1.0000
  O   O40       1.0  0.7958000000000001  0.1574  0.2829999999999999  1.0000
