data_image0
_chemical_formula_structural       Bi16O24
_chemical_formula_sum              "Bi16 O24"
_cell_length_a       10.93
_cell_length_b       10.93
_cell_length_c       5.62
_cell_angle_alpha    90.0
_cell_angle_beta     90.0
_cell_angle_gamma    90.0

_space_group_name_H-M_alt    "P 1"
_space_group_IT_number       1

loop_
  _space_group_symop_operation_xyz
  'x, y, z'

loop_
  _atom_site_type_symbol
  _atom_site_label
  _atom_site_symmetry_multiplicity
  _atom_site_fract_x
  _atom_site_fract_y
  _atom_site_fract_z
  _atom_site_occupancy
  Bi  Bi1       1.0  0.1362  0.1138  0.25  1.0000
  Bi  Bi2       1.0  0.8638  0.8862000000000001  0.25  1.0000
  Bi  Bi3       1.0  0.8862000000000001  0.1362  0.75  1.0000
  Bi  Bi4       1.0  0.1138  0.8638  0.75  1.0000
  Bi  Bi5       1.0  0.8638  0.6138  0.75  1.0000
  Bi  Bi6       1.0  0.1138  0.6362000000000001  0.25  1.0000
  Bi  Bi7       1.0  0.1362  0.38620000000000004  0.75  1.0000
  Bi  Bi8       1.0  0.8862000000000001  0.3638  0.25  1.0000
  Bi  Bi9       1.0  0.6362000000000001  0.6138  0.25  1.0000
  Bi  Bi10      1.0  0.3638  0.38620000000000004  0.25  1.0000
  Bi  Bi11      1.0  0.38620000000000004  0.6362000000000001  0.75  1.0000
  Bi  Bi12      1.0  0.6138  0.3638  0.75  1.0000
  Bi  Bi13      1.0  0.3638  0.1138  0.75  1.0000
  Bi  Bi14      1.0  0.6138  0.1362  0.25  1.0000
  Bi  Bi15      1.0  0.6362000000000001  0.8862000000000001  0.75  1.0000
  Bi  Bi16      1.0  0.38620000000000004  0.8638  0.25  1.0000
  O   O1        1.0  0.0224  0.25  0.0  1.0000
  O   O2        1.0  0.9776  0.75  0.0  1.0000
  O   O3        1.0  0.75  0.0224  0.0  1.0000
  O   O4        1.0  0.25  0.9776  0.0  1.0000
  O   O5        1.0  0.25  0.5224  0.0  1.0000
  O   O6        1.0  0.75  0.4776  0.0  1.0000
  O   O7        1.0  0.5224  0.75  0.0  1.0000
  O   O8        1.0  0.4776  0.25  0.0  1.0000
  O   O9        1.0  0.0224  0.25  0.5  1.0000
  O   O10       1.0  0.9776  0.75  0.5  1.0000
  O   O11       1.0  0.75  0.0224  0.5  1.0000
  O   O12       1.0  0.25  0.9776  0.5  1.0000
  O   O13       1.0  0.25  0.5224  0.5  1.0000
  O   O14       1.0  0.75  0.4776  0.5  1.0000
  O   O15       1.0  0.5224  0.75  0.5  1.0000
  O   O16       1.0  0.4776  0.25  0.5  1.0000
  O   O17       1.0  0.25  0.25  0.0  1.0000
  O   O18       1.0  0.75  0.75  0.0  1.0000
  O   O19       1.0  0.75  0.25  0.0  1.0000
  O   O20       1.0  0.25  0.75  0.0  1.0000
  O   O21       1.0  0.0  0.0  0.5  1.0000
  O   O22       1.0  0.0  0.5  0.5  1.0000
  O   O23       1.0  0.5  0.5  0.5  1.0000
  O   O24       1.0  0.5  0.0  0.5  1.0000
