data_image0
_chemical_formula_structural       In22Sr6
_chemical_formula_sum              "In22 Sr6"
_cell_length_a       4.9257
_cell_length_b       14.247
_cell_length_c       11.212
_cell_angle_alpha    90.0
_cell_angle_beta     90.0
_cell_angle_gamma    90.0

_space_group_name_H-M_alt    "P 1"
_space_group_IT_number       1

loop_
  _space_group_symop_operation_xyz
  'x, y, z'

loop_
  _atom_site_type_symbol
  _atom_site_label
  _atom_site_symmetry_multiplicity
  _atom_site_fract_x
  _atom_site_fract_y
  _atom_site_fract_z
  _atom_site_occupancy
  In  In1       1.0  0.5  0.0  0.5  1.0000
  In  In2       1.0  0.0  0.5  0.0  1.0000
  In  In3       1.0  0.5  0.69543  0.0  1.0000
  In  In4       1.0  0.5  0.30457  0.0  1.0000
  In  In5       1.0  0.0  0.19543  0.5  1.0000
  In  In6       1.0  0.0  0.8045700000000001  0.5  1.0000
  In  In7       1.0  0.0  0.37263  0.34257  1.0000
  In  In8       1.0  0.0  0.62737  0.34257  1.0000
  In  In9       1.0  0.0  0.37263  0.65743  1.0000
  In  In10      1.0  0.0  0.62737  0.65743  1.0000
  In  In11      1.0  0.5  0.87263  0.84257  1.0000
  In  In12      1.0  0.5  0.12736999999999998  0.84257  1.0000
  In  In13      1.0  0.5  0.87263  0.15743000000000001  1.0000
  In  In14      1.0  0.5  0.12736999999999998  0.15743000000000001  1.0000
  In  In15      1.0  0.0  0.27532  0.14751  1.0000
  In  In16      1.0  0.0  0.72468  0.14751  1.0000
  In  In17      1.0  0.0  0.27532  0.85249  1.0000
  In  In18      1.0  0.0  0.72468  0.85249  1.0000
  In  In19      1.0  0.5  0.77532  0.64751  1.0000
  In  In20      1.0  0.5  0.22468  0.64751  1.0000
  In  In21      1.0  0.5  0.77532  0.35248999999999997  1.0000
  In  In22      1.0  0.5  0.22468  0.35248999999999997  1.0000
  Sr  Sr1       1.0  0.0  0.0  0.0  1.0000
  Sr  Sr2       1.0  0.5  0.5  0.5  1.0000
  Sr  Sr3       1.0  0.0  0.0  0.31016  1.0000
  Sr  Sr4       1.0  0.0  0.0  0.68984  1.0000
  Sr  Sr5       1.0  0.5  0.5  0.81016  1.0000
  Sr  Sr6       1.0  0.5  0.5  0.18984  1.0000
