data_image0
_chemical_formula_structural       Nb4Fe4Te8
_chemical_formula_sum              "Nb4 Fe4 Te8"
_cell_length_a       7.922
_cell_length_b       7.239
_cell_length_c       6.243
_cell_angle_alpha    90.0
_cell_angle_beta     90.0
_cell_angle_gamma    90.0

_space_group_name_H-M_alt    "P 1"
_space_group_IT_number       1

loop_
  _space_group_symop_operation_xyz
  'x, y, z'

loop_
  _atom_site_type_symbol
  _atom_site_label
  _atom_site_symmetry_multiplicity
  _atom_site_fract_x
  _atom_site_fract_y
  _atom_site_fract_z
  _atom_site_occupancy
  Nb  Nb1       1.0  0.7981  0.5  0.0  1.0000
  Nb  Nb2       1.0  0.7019  0.5  0.5  1.0000
  Nb  Nb3       1.0  0.20189999999999997  0.5  0.0  1.0000
  Nb  Nb4       1.0  0.29810000000000003  0.5  0.5  1.0000
  Fe  Fe1       1.0  0.0  0.3836  0.6464999999999999  1.0000
  Fe  Fe2       1.0  0.0  0.6164000000000001  0.35350000000000015  1.0000
  Fe  Fe3       1.0  0.5  0.3836  0.8535  1.0000
  Fe  Fe4       1.0  0.5  0.6164000000000001  0.14649999999999985  1.0000
  Te  Te1       1.0  0.75  0.1808  0.7499999999999999  1.0000
  Te  Te2       1.0  0.75  0.8191999999999999  0.2500000000000001  1.0000
  Te  Te3       1.0  0.25  0.8191999999999999  0.2500000000000001  1.0000
  Te  Te4       1.0  0.25  0.1808  0.7499999999999999  1.0000
  Te  Te5       1.0  0.0  0.7257  0.7507999999999999  1.0000
  Te  Te6       1.0  0.0  0.2743  0.24920000000000006  1.0000
  Te  Te7       1.0  0.5  0.7257  0.7492  1.0000
  Te  Te8       1.0  0.5  0.2743  0.2507999999999999  1.0000
