data_image0
_chemical_formula_structural       K12Sb12O36
_chemical_formula_sum              "K12 Sb12 O36"
_cell_length_a       9.6
_cell_length_b       9.6
_cell_length_c       9.6
_cell_angle_alpha    90.0
_cell_angle_beta     90.0
_cell_angle_gamma    90.0

_space_group_name_H-M_alt    "P 1"
_space_group_IT_number       1

loop_
  _space_group_symop_operation_xyz
  'x, y, z'

loop_
  _atom_site_type_symbol
  _atom_site_label
  _atom_site_symmetry_multiplicity
  _atom_site_fract_x
  _atom_site_fract_y
  _atom_site_fract_z
  _atom_site_occupancy
  K   K1        1.0  0.75  0.75  0.75  1.0000
  K   K2        1.0  0.75  0.25  0.25  1.0000
  K   K3        1.0  0.25  0.75  0.25  1.0000
  K   K4        1.0  0.25  0.25  0.75  1.0000
  K   K5        1.0  0.139  0.139  0.139  1.0000
  K   K6        1.0  0.139  0.861  0.861  1.0000
  K   K7        1.0  0.861  0.139  0.861  1.0000
  K   K8        1.0  0.861  0.861  0.139  1.0000
  K   K9        1.0  0.361  0.361  0.361  1.0000
  K   K10       1.0  0.361  0.639  0.639  1.0000
  K   K11       1.0  0.639  0.361  0.639  1.0000
  K   K12       1.0  0.639  0.639  0.361  1.0000
  Sb  Sb1       1.0  0.34  0.5  0.0  1.0000
  Sb  Sb2       1.0  0.6599999999999999  0.5  0.0  1.0000
  Sb  Sb3       1.0  0.5  0.0  0.34  1.0000
  Sb  Sb4       1.0  0.5  0.0  0.6599999999999999  1.0000
  Sb  Sb5       1.0  0.0  0.34  0.5  1.0000
  Sb  Sb6       1.0  0.0  0.6599999999999999  0.5  1.0000
  Sb  Sb7       1.0  0.15999999999999998  0.0  0.5  1.0000
  Sb  Sb8       1.0  0.8400000000000001  0.0  0.5  1.0000
  Sb  Sb9       1.0  0.0  0.5  0.15999999999999998  1.0000
  Sb  Sb10      1.0  0.0  0.5  0.8400000000000001  1.0000
  Sb  Sb11      1.0  0.5  0.15999999999999998  0.0  1.0000
  Sb  Sb12      1.0  0.5  0.8400000000000001  0.0  1.0000
  O   O1        1.0  0.36  0.0  0.0  1.0000
  O   O2        1.0  0.64  0.0  0.0  1.0000
  O   O3        1.0  0.0  0.0  0.36  1.0000
  O   O4        1.0  0.0  0.0  0.64  1.0000
  O   O5        1.0  0.0  0.36  0.0  1.0000
  O   O6        1.0  0.0  0.64  0.0  1.0000
  O   O7        1.0  0.14  0.5  0.5  1.0000
  O   O8        1.0  0.8600000000000001  0.5  0.5  1.0000
  O   O9        1.0  0.5  0.5  0.14  1.0000
  O   O10       1.0  0.5  0.5  0.8600000000000001  1.0000
  O   O11       1.0  0.5  0.14  0.5  1.0000
  O   O12       1.0  0.5  0.8600000000000001  0.5  1.0000
  O   O13       1.0  0.28  0.0  0.347  1.0000
  O   O14       1.0  0.28  0.0  0.653  1.0000
  O   O15       1.0  0.72  0.0  0.653  1.0000
  O   O16       1.0  0.72  0.0  0.347  1.0000
  O   O17       1.0  0.0  0.347  0.28  1.0000
  O   O18       1.0  0.0  0.653  0.28  1.0000
  O   O19       1.0  0.0  0.653  0.72  1.0000
  O   O20       1.0  0.0  0.347  0.72  1.0000
  O   O21       1.0  0.347  0.28  0.0  1.0000
  O   O22       1.0  0.653  0.28  0.0  1.0000
  O   O23       1.0  0.653  0.72  0.0  1.0000
  O   O24       1.0  0.347  0.72  0.0  1.0000
  O   O25       1.0  0.21999999999999997  0.5  0.15300000000000002  1.0000
  O   O26       1.0  0.21999999999999997  0.5  0.847  1.0000
  O   O27       1.0  0.78  0.5  0.847  1.0000
  O   O28       1.0  0.78  0.5  0.15300000000000002  1.0000
  O   O29       1.0  0.5  0.15300000000000002  0.21999999999999997  1.0000
  O   O30       1.0  0.5  0.847  0.21999999999999997  1.0000
  O   O31       1.0  0.5  0.847  0.78  1.0000
  O   O32       1.0  0.5  0.15300000000000002  0.78  1.0000
  O   O33       1.0  0.15300000000000002  0.21999999999999997  0.5  1.0000
  O   O34       1.0  0.847  0.21999999999999997  0.5  1.0000
  O   O35       1.0  0.847  0.78  0.5  1.0000
  O   O36       1.0  0.15300000000000002  0.78  0.5  1.0000
