data_image0
_chemical_formula_structural       Cl8O8N8H8C8O8C8H8C8H8C8H8C16H8C8H8C8H8C8H8C8H8C8H24
_chemical_formula_sum              "Cl8 O16 N8 H96 C88"
_cell_length_a       11.0478
_cell_length_b       28.024
_cell_length_c       7.2693
_cell_angle_alpha    90.0
_cell_angle_beta     90.0
_cell_angle_gamma    90.0

_space_group_name_H-M_alt    "P 1"
_space_group_IT_number       1

loop_
  _space_group_symop_operation_xyz
  'x, y, z'

loop_
  _atom_site_type_symbol
  _atom_site_label
  _atom_site_symmetry_multiplicity
  _atom_site_fract_x
  _atom_site_fract_y
  _atom_site_fract_z
  _atom_site_occupancy
  Cl  Cl1       1.0  0.99752  0.3578  0.07811  1.0000
  Cl  Cl2       1.0  0.00248  0.6422  0.07811  1.0000
  Cl  Cl3       1.0  0.49752  0.1422  0.07811  1.0000
  Cl  Cl4       1.0  0.50248  0.8578  0.07811  1.0000
  Cl  Cl5       1.0  0.49752  0.8578  0.57811  1.0000
  Cl  Cl6       1.0  0.50248  0.1422  0.57811  1.0000
  Cl  Cl7       1.0  0.99752  0.6422  0.57811  1.0000
  Cl  Cl8       1.0  0.00248  0.3578  0.57811  1.0000
  O   O1        1.0  0.85909  0.5359  0.2044  1.0000
  O   O2        1.0  0.14091  0.4641  0.2044  1.0000
  O   O3        1.0  0.35909  0.9641  0.2044  1.0000
  O   O4        1.0  0.64091  0.03590000000000005  0.2044  1.0000
  O   O5        1.0  0.35909  0.03590000000000005  0.7044  1.0000
  O   O6        1.0  0.64091  0.9641  0.7044  1.0000
  O   O7        1.0  0.85909  0.4641  0.7044  1.0000
  O   O8        1.0  0.14091  0.5359  0.7044  1.0000
  N   N1        1.0  0.8813999999999999  0.45437  0.20609999999999995  1.0000
  N   N2        1.0  0.1186  0.5456300000000001  0.20609999999999995  1.0000
  N   N3        1.0  0.38139999999999996  0.045630000000000004  0.20609999999999995  1.0000
  N   N4        1.0  0.6186  0.95437  0.20609999999999995  1.0000
  N   N5        1.0  0.38139999999999996  0.95437  0.7061  1.0000
  N   N6        1.0  0.6186  0.045630000000000004  0.7061  1.0000
  N   N7        1.0  0.8813999999999999  0.5456300000000001  0.7061  1.0000
  N   N8        1.0  0.1186  0.45437  0.7061  1.0000
  H   H1        1.0  0.96  0.4556  0.207  1.0000
  H   H2        1.0  0.04  0.5444  0.207  1.0000
  H   H3        1.0  0.46  0.044399999999999995  0.207  1.0000
  H   H4        1.0  0.54  0.9556000000000001  0.207  1.0000
  H   H5        1.0  0.46  0.9556000000000001  0.707  1.0000
  H   H6        1.0  0.54  0.044399999999999995  0.707  1.0000
  H   H7        1.0  0.96  0.5444  0.707  1.0000
  H   H8        1.0  0.04  0.4556  0.707  1.0000
  C   C1        1.0  0.8207999999999999  0.4949800000000001  0.1911  1.0000
  C   C2        1.0  0.1792  0.50502  0.1911  1.0000
  C   C3        1.0  0.3208  0.005019999999999969  0.1911  1.0000
  C   C4        1.0  0.6792  0.99498  0.1911  1.0000
  C   C5        1.0  0.3208  0.99498  0.6911  1.0000
  C   C6        1.0  0.6792  0.005019999999999969  0.6911  1.0000
  C   C7        1.0  0.8207999999999999  0.50502  0.6911  1.0000
  C   C8        1.0  0.1792  0.4949800000000001  0.6911  1.0000
  O   O9        1.0  0.70332  0.48647  0.1546  1.0000
  O   O10       1.0  0.29668  0.51353  0.1546  1.0000
  O   O11       1.0  0.20332  0.013529999999999986  0.1546  1.0000
  O   O12       1.0  0.79668  0.98647  0.1546  1.0000
  O   O13       1.0  0.20332  0.98647  0.6546  1.0000
  O   O14       1.0  0.79668  0.013529999999999986  0.6546  1.0000
  O   O15       1.0  0.70332  0.51353  0.6546  1.0000
  O   O16       1.0  0.29668  0.48647  0.6546  1.0000
  C   C9        1.0  0.6817  0.43569000000000013  0.1454  1.0000
  C   C10       1.0  0.3183  0.5643099999999999  0.1454  1.0000
  C   C11       1.0  0.18169999999999997  0.06430999999999992  0.1454  1.0000
  C   C12       1.0  0.8183  0.9356900000000002  0.1454  1.0000
  C   C13       1.0  0.18169999999999997  0.9356900000000002  0.6453999999999999  1.0000
  C   C14       1.0  0.8183  0.06430999999999992  0.6453999999999999  1.0000
  C   C15       1.0  0.6817  0.5643099999999999  0.6453999999999999  1.0000
  C   C16       1.0  0.3183  0.43569000000000013  0.6453999999999999  1.0000
  H   H9        1.0  0.656  0.4287000000000001  0.019  1.0000
  H   H10       1.0  0.344  0.5712999999999999  0.019  1.0000
  H   H11       1.0  0.15600000000000003  0.07129999999999992  0.019  1.0000
  H   H12       1.0  0.8439999999999999  0.9287000000000002  0.019  1.0000
  H   H13       1.0  0.15600000000000003  0.9287000000000002  0.519  1.0000
  H   H14       1.0  0.8439999999999999  0.07129999999999992  0.519  1.0000
  H   H15       1.0  0.656  0.5712999999999999  0.519  1.0000
  H   H16       1.0  0.344  0.4287000000000001  0.519  1.0000
  C   C17       1.0  0.8083  0.41258  0.1792  1.0000
  C   C18       1.0  0.19169999999999998  0.58742  0.1792  1.0000
  C   C19       1.0  0.3083  0.08742  0.1792  1.0000
  C   C20       1.0  0.6917  0.91258  0.1792  1.0000
  C   C21       1.0  0.3083  0.91258  0.6792  1.0000
  C   C22       1.0  0.6917  0.08742  0.6792  1.0000
  C   C23       1.0  0.8083  0.58742  0.6792  1.0000
  C   C24       1.0  0.19169999999999998  0.41258  0.6792  1.0000
  H   H17       1.0  0.806  0.3891000000000001  0.289  1.0000
  H   H18       1.0  0.194  0.6109  0.289  1.0000
  H   H19       1.0  0.306  0.11089999999999994  0.289  1.0000
  H   H20       1.0  0.694  0.8891  0.289  1.0000
  H   H21       1.0  0.306  0.8891  0.7889999999999999  1.0000
  H   H22       1.0  0.694  0.11089999999999994  0.7889999999999999  1.0000
  H   H23       1.0  0.806  0.6109  0.7889999999999999  1.0000
  H   H24       1.0  0.194  0.3891000000000001  0.7889999999999999  1.0000
  C   C25       1.0  0.8511  0.38221  0.020199999999999996  1.0000
  C   C26       1.0  0.1489  0.6177900000000001  0.020199999999999996  1.0000
  C   C27       1.0  0.35109999999999997  0.11779  0.020199999999999996  1.0000
  C   C28       1.0  0.6489  0.88221  0.020199999999999996  1.0000
  C   C29       1.0  0.35109999999999997  0.88221  0.5202  1.0000
  C   C30       1.0  0.6489  0.11779  0.5202  1.0000
  C   C31       1.0  0.8511  0.6177900000000001  0.5202  1.0000
  C   C32       1.0  0.1489  0.38221  0.5202  1.0000
  H   H25       1.0  0.858  0.4035000000000001  0.8989999999999999  1.0000
  H   H26       1.0  0.142  0.5964999999999999  0.8989999999999999  1.0000
  H   H27       1.0  0.358  0.09649999999999992  0.8989999999999999  1.0000
  H   H28       1.0  0.642  0.9035000000000001  0.8989999999999999  1.0000
  H   H29       1.0  0.358  0.9035000000000001  0.399  1.0000
  H   H30       1.0  0.642  0.09649999999999992  0.399  1.0000
  H   H31       1.0  0.858  0.5964999999999999  0.399  1.0000
  H   H32       1.0  0.142  0.4035000000000001  0.399  1.0000
  C   C33       1.0  0.7641  0.34238  0.9723999999999999  1.0000
  C   C34       1.0  0.23589999999999997  0.65762  0.9723999999999999  1.0000
  C   C35       1.0  0.2641  0.15761999999999998  0.9723999999999999  1.0000
  C   C36       1.0  0.7359  0.84238  0.9723999999999999  1.0000
  C   C37       1.0  0.2641  0.84238  0.4724  1.0000
  C   C38       1.0  0.7359  0.15761999999999998  0.4724  1.0000
  C   C39       1.0  0.7641  0.65762  0.4724  1.0000
  C   C40       1.0  0.23589999999999997  0.34238  0.4724  1.0000
  C   C41       1.0  0.7033  0.34488  0.8083  1.0000
  C   C42       1.0  0.2967  0.6551199999999999  0.8083  1.0000
  C   C43       1.0  0.20329999999999998  0.15511999999999998  0.8083  1.0000
  C   C44       1.0  0.7966999999999999  0.8448800000000001  0.8083  1.0000
  C   C45       1.0  0.20329999999999998  0.8448800000000001  0.3083  1.0000
  C   C46       1.0  0.7966999999999999  0.15511999999999998  0.3083  1.0000
  C   C47       1.0  0.7033  0.6551199999999999  0.3083  1.0000
  C   C48       1.0  0.2967  0.34488  0.3083  1.0000
  H   H33       1.0  0.7130000000000001  0.3688  0.729  1.0000
  H   H34       1.0  0.287  0.6312  0.729  1.0000
  H   H35       1.0  0.21300000000000002  0.13119999999999998  0.729  1.0000
  H   H36       1.0  0.7869999999999999  0.8688000000000001  0.729  1.0000
  H   H37       1.0  0.21300000000000002  0.8688000000000001  0.22899999999999998  1.0000
  H   H38       1.0  0.7869999999999999  0.13119999999999998  0.22899999999999998  1.0000
  H   H39       1.0  0.7130000000000001  0.6312  0.22899999999999998  1.0000
  H   H40       1.0  0.287  0.3688  0.22899999999999998  1.0000
  C   C49       1.0  0.618  0.30983  0.7647  1.0000
  C   C50       1.0  0.382  0.69017  0.7647  1.0000
  C   C51       1.0  0.11799999999999998  0.19017  0.7647  1.0000
  C   C52       1.0  0.8819999999999999  0.80983  0.7647  1.0000
  C   C53       1.0  0.11799999999999998  0.80983  0.26470000000000005  1.0000
  C   C54       1.0  0.8819999999999999  0.19017  0.26470000000000005  1.0000
  C   C55       1.0  0.618  0.69017  0.26470000000000005  1.0000
  C   C56       1.0  0.382  0.30983  0.26470000000000005  1.0000
  H   H41       1.0  0.5860000000000001  0.3132  0.653  1.0000
  H   H42       1.0  0.414  0.6868000000000001  0.653  1.0000
  H   H43       1.0  0.08600000000000002  0.18680000000000002  0.653  1.0000
  H   H44       1.0  0.9139999999999999  0.8131999999999999  0.653  1.0000
  H   H45       1.0  0.08600000000000002  0.8131999999999999  0.15300000000000002  1.0000
  H   H46       1.0  0.9139999999999999  0.18680000000000002  0.15300000000000002  1.0000
  H   H47       1.0  0.5860000000000001  0.6868000000000001  0.15300000000000002  1.0000
  H   H48       1.0  0.414  0.3132  0.15300000000000002  1.0000
  C   C57       1.0  0.5971  0.27263  0.8815  1.0000
  C   C58       1.0  0.4029  0.7273700000000001  0.8815  1.0000
  C   C59       1.0  0.09710000000000002  0.22737000000000002  0.8815  1.0000
  C   C60       1.0  0.9028999999999999  0.77263  0.8815  1.0000
  C   C61       1.0  0.09710000000000002  0.77263  0.38149999999999995  1.0000
  C   C62       1.0  0.9028999999999999  0.22737000000000002  0.38149999999999995  1.0000
  C   C63       1.0  0.5971  0.7273700000000001  0.38149999999999995  1.0000
  C   C64       1.0  0.4029  0.27263  0.38149999999999995  1.0000
  H   H49       1.0  0.542  0.2482  0.848  1.0000
  H   H50       1.0  0.458  0.7518  0.848  1.0000
  H   H51       1.0  0.04199999999999998  0.2518  0.848  1.0000
  H   H52       1.0  0.958  0.7482  0.848  1.0000
  H   H53       1.0  0.04199999999999998  0.7482  0.348  1.0000
  H   H54       1.0  0.958  0.2518  0.348  1.0000
  H   H55       1.0  0.542  0.7518  0.348  1.0000
  H   H56       1.0  0.458  0.2482  0.348  1.0000
  C   C65       1.0  0.6591  0.26987  0.0433  1.0000
  C   C66       1.0  0.3409  0.73013  0.0433  1.0000
  C   C67       1.0  0.15910000000000002  0.23013000000000003  0.0433  1.0000
  C   C68       1.0  0.8409  0.7698700000000002  0.0433  1.0000
  C   C69       1.0  0.15910000000000002  0.7698700000000002  0.5433  1.0000
  C   C70       1.0  0.8409  0.23013000000000003  0.5433  1.0000
  C   C71       1.0  0.6591  0.73013  0.5433  1.0000
  C   C72       1.0  0.3409  0.26987  0.5433  1.0000
  H   H57       1.0  0.645  0.2452  0.128  1.0000
  H   H58       1.0  0.355  0.7548  0.128  1.0000
  H   H59       1.0  0.14500000000000002  0.2548  0.128  1.0000
  H   H60       1.0  0.855  0.7452000000000001  0.128  1.0000
  H   H61       1.0  0.14500000000000002  0.7452000000000001  0.628  1.0000
  H   H62       1.0  0.855  0.2548  0.628  1.0000
  H   H63       1.0  0.645  0.7548  0.628  1.0000
  H   H64       1.0  0.355  0.2452  0.628  1.0000
  C   C73       1.0  0.7422  0.30479  0.089  1.0000
  C   C74       1.0  0.2578  0.69521  0.089  1.0000
  C   C75       1.0  0.24220000000000003  0.19521000000000002  0.089  1.0000
  C   C76       1.0  0.7578  0.80479  0.089  1.0000
  C   C77       1.0  0.24220000000000003  0.80479  0.589  1.0000
  C   C78       1.0  0.7578  0.19521000000000002  0.589  1.0000
  C   C79       1.0  0.7422  0.69521  0.589  1.0000
  C   C80       1.0  0.2578  0.30479  0.589  1.0000
  H   H65       1.0  0.7859999999999999  0.3038  0.20599999999999993  1.0000
  H   H66       1.0  0.214  0.6961999999999999  0.20599999999999993  1.0000
  H   H67       1.0  0.28600000000000003  0.19619999999999999  0.20599999999999993  1.0000
  H   H68       1.0  0.714  0.8038000000000002  0.20599999999999993  1.0000
  H   H69       1.0  0.28600000000000003  0.8038000000000002  0.706  1.0000
  H   H70       1.0  0.714  0.19619999999999999  0.706  1.0000
  H   H71       1.0  0.7859999999999999  0.6961999999999999  0.706  1.0000
  H   H72       1.0  0.214  0.3038  0.706  1.0000
  C   C81       1.0  0.5895  0.4229500000000001  0.2854  1.0000
  C   C82       1.0  0.4105  0.57705  0.2854  1.0000
  C   C83       1.0  0.08950000000000002  0.07704999999999995  0.2854  1.0000
  C   C84       1.0  0.9104999999999999  0.9229500000000002  0.2854  1.0000
  C   C85       1.0  0.08950000000000002  0.9229500000000002  0.7854  1.0000
  C   C86       1.0  0.9104999999999999  0.07704999999999995  0.7854  1.0000
  C   C87       1.0  0.5895  0.57705  0.7854  1.0000
  C   C88       1.0  0.4105  0.4229500000000001  0.7854  1.0000
  H   H73       1.0  0.521  0.4415  0.262  1.0000
  H   H74       1.0  0.479  0.5585  0.262  1.0000
  H   H75       1.0  0.02100000000000002  0.058499999999999996  0.262  1.0000
  H   H76       1.0  0.9789999999999999  0.9415000000000001  0.262  1.0000
  H   H77       1.0  0.02100000000000002  0.9415000000000001  0.7619999999999999  1.0000
  H   H78       1.0  0.9789999999999999  0.058499999999999996  0.7619999999999999  1.0000
  H   H79       1.0  0.521  0.5585  0.7619999999999999  1.0000
  H   H80       1.0  0.479  0.4415  0.7619999999999999  1.0000
  H   H81       1.0  0.633  0.4318  0.415  1.0000
  H   H82       1.0  0.367  0.5682  0.415  1.0000
  H   H83       1.0  0.133  0.06819999999999998  0.415  1.0000
  H   H84       1.0  0.867  0.9318  0.415  1.0000
  H   H85       1.0  0.133  0.9318  0.915  1.0000
  H   H86       1.0  0.867  0.06819999999999998  0.915  1.0000
  H   H87       1.0  0.633  0.5682  0.915  1.0000
  H   H88       1.0  0.367  0.4318  0.915  1.0000
  H   H89       1.0  0.5740000000000001  0.39  0.283  1.0000
  H   H90       1.0  0.426  0.6100000000000001  0.283  1.0000
  H   H91       1.0  0.07400000000000001  0.10999999999999999  0.283  1.0000
  H   H92       1.0  0.9259999999999999  0.89  0.283  1.0000
  H   H93       1.0  0.07400000000000001  0.89  0.7829999999999998  1.0000
  H   H94       1.0  0.9259999999999999  0.10999999999999999  0.7829999999999998  1.0000
  H   H95       1.0  0.5740000000000001  0.6100000000000001  0.7829999999999998  1.0000
  H   H96       1.0  0.426  0.39  0.7829999999999998  1.0000
