data_image0
_chemical_formula_structural       Au16Zn8N32C32
_chemical_formula_sum              "Au16 Zn8 N32 C32"
_cell_length_a       9.9583
_cell_length_b       10.4988
_cell_length_c       15.7961
_cell_angle_alpha    90.0
_cell_angle_beta     98.407
_cell_angle_gamma    90.0

_space_group_name_H-M_alt    "P 1"
_space_group_IT_number       1

loop_
  _space_group_symop_operation_xyz
  'x, y, z'

loop_
  _atom_site_type_symbol
  _atom_site_label
  _atom_site_symmetry_multiplicity
  _atom_site_fract_x
  _atom_site_fract_y
  _atom_site_fract_z
  _atom_site_occupancy
  Au  Au1       1.0  0.0  0.0  0.4999999999999999  1.0000
  Au  Au2       1.0  0.5  0.5  0.4999999999999999  1.0000
  Au  Au3       1.0  2.2297440820725553e-17  0.0  5.551115123125782e-17  1.0000
  Au  Au4       1.0  0.5  0.5  5.551115123125782e-17  1.0000
  Au  Au5       1.0  0.25  0.25  0.0  1.0000
  Au  Au6       1.0  0.7499999999999999  0.75  0.0  1.0000
  Au  Au7       1.0  0.7499999999999999  0.25  0.49999999999999994  1.0000
  Au  Au8       1.0  0.24999999999999994  0.75  0.49999999999999994  1.0000
  Au  Au9       1.0  0.5805399999999998  0.80884  0.50885  1.0000
  Au  Au10      1.0  0.41946000000000017  0.19116  0.4911499999999999  1.0000
  Au  Au11      1.0  0.08053999999999983  0.30884  0.50885  1.0000
  Au  Au12      1.0  0.9194600000000002  0.69116  0.4911499999999999  1.0000
  Au  Au13      1.0  0.41946000000000017  0.80884  0.99115  1.0000
  Au  Au14      1.0  0.5805399999999998  0.19116  0.008850000000000025  1.0000
  Au  Au15      1.0  0.9194600000000002  0.30884  0.99115  1.0000
  Au  Au16      1.0  0.08053999999999982  0.69116  0.008850000000000025  1.0000
  Zn  Zn1       1.0  0.26908  0.9639500000000001  0.25569  1.0000
  Zn  Zn2       1.0  0.7309199999999999  0.036049999999999915  0.74431  1.0000
  Zn  Zn3       1.0  0.7690799999999999  0.4639500000000001  0.25569  1.0000
  Zn  Zn4       1.0  0.23092  0.5360499999999999  0.74431  1.0000
  Zn  Zn5       1.0  0.73092  0.9639500000000001  0.24431  1.0000
  Zn  Zn6       1.0  0.26908  0.036049999999999915  0.75569  1.0000
  Zn  Zn7       1.0  0.23092  0.4639500000000001  0.24431  1.0000
  Zn  Zn8       1.0  0.7690799999999999  0.5360499999999999  0.75569  1.0000
  N   N1        1.0  0.1386  0.0022999999999999687  0.3350999999999999  1.0000
  N   N2        1.0  0.8613999999999998  0.9977  0.6648999999999999  1.0000
  N   N3        1.0  0.6386  0.5023  0.3350999999999999  1.0000
  N   N4        1.0  0.3614  0.49770000000000003  0.6648999999999999  1.0000
  N   N5        1.0  0.8613999999999998  0.0022999999999999687  0.16490000000000002  1.0000
  N   N6        1.0  0.13859999999999995  0.9977  0.8350999999999998  1.0000
  N   N7        1.0  0.3614  0.5023  0.16490000000000002  1.0000
  N   N8        1.0  0.6386000000000001  0.49770000000000003  0.8350999999999998  1.0000
  N   N9        1.0  0.2841  0.0988  0.17209999999999995  1.0000
  N   N10       1.0  0.7159  0.9012000000000001  0.8279000000000001  1.0000
  N   N11       1.0  0.7840999999999999  0.5988  0.17209999999999995  1.0000
  N   N12       1.0  0.21589999999999998  0.4012  0.8279000000000001  1.0000
  N   N13       1.0  0.7159000000000001  0.0988  0.3279  1.0000
  N   N14       1.0  0.2841  0.9012000000000001  0.6720999999999999  1.0000
  N   N15       1.0  0.21589999999999998  0.5988  0.3279  1.0000
  N   N16       1.0  0.7840999999999999  0.4012  0.6720999999999999  1.0000
  N   N17       1.0  0.4305999999999999  0.918  0.3371999999999999  1.0000
  N   N18       1.0  0.5694000000000002  0.08199999999999996  0.6628000000000001  1.0000
  N   N19       1.0  0.9305999999999999  0.41800000000000015  0.3371999999999999  1.0000
  N   N20       1.0  0.06940000000000007  0.582  0.6628000000000001  1.0000
  N   N21       1.0  0.5694000000000001  0.918  0.16280000000000003  1.0000
  N   N22       1.0  0.4305999999999999  0.08199999999999996  0.8371999999999999  1.0000
  N   N23       1.0  0.06940000000000006  0.41800000000000015  0.16280000000000003  1.0000
  N   N24       1.0  0.9305999999999999  0.582  0.8371999999999999  1.0000
  N   N25       1.0  0.2022  0.8199  0.17949999999999994  1.0000
  N   N26       1.0  0.7978  0.18010000000000004  0.8204999999999999  1.0000
  N   N27       1.0  0.7021999999999999  0.3199000000000001  0.17949999999999994  1.0000
  N   N28       1.0  0.29779999999999995  0.6801  0.8204999999999999  1.0000
  N   N29       1.0  0.7978  0.8199  0.3205  1.0000
  N   N30       1.0  0.2022  0.18010000000000004  0.6795  1.0000
  N   N31       1.0  0.29779999999999995  0.3199000000000001  0.3205  1.0000
  N   N32       1.0  0.7021999999999999  0.6801  0.6795  1.0000
  C   C1        1.0  0.0858  0.0033000000000000806  0.3944  1.0000
  C   C2        1.0  0.9141999999999999  0.9967  0.6056  1.0000
  C   C3        1.0  0.5858  0.5033000000000001  0.3944  1.0000
  C   C4        1.0  0.4142  0.4966999999999999  0.6056  1.0000
  C   C5        1.0  0.9141999999999999  0.0033000000000000806  0.10560000000000001  1.0000
  C   C6        1.0  0.08579999999999999  0.9967  0.8944  1.0000
  C   C7        1.0  0.4142  0.5033000000000001  0.10560000000000001  1.0000
  C   C8        1.0  0.5858  0.4966999999999999  0.8944  1.0000
  C   C9        1.0  0.274  0.15680000000000005  0.1104  1.0000
  C   C10       1.0  0.7259999999999999  0.8431999999999998  0.8895999999999998  1.0000
  C   C11       1.0  0.7739999999999999  0.6568  0.1104  1.0000
  C   C12       1.0  0.22599999999999992  0.34319999999999995  0.8895999999999998  1.0000
  C   C13       1.0  0.7259999999999999  0.15680000000000005  0.38959999999999995  1.0000
  C   C14       1.0  0.27399999999999997  0.8431999999999998  0.6103999999999999  1.0000
  C   C15       1.0  0.22599999999999995  0.6568  0.38959999999999995  1.0000
  C   C16       1.0  0.7739999999999999  0.34319999999999995  0.6103999999999999  1.0000
  C   C17       1.0  0.49219999999999997  0.8807999999999999  0.3975  1.0000
  C   C18       1.0  0.5078  0.11920000000000008  0.6025  1.0000
  C   C19       1.0  0.9921999999999999  0.3807999999999998  0.3975  1.0000
  C   C20       1.0  0.007800000000000019  0.6192000000000001  0.6025  1.0000
  C   C21       1.0  0.5078  0.8807999999999999  0.10249999999999997  1.0000
  C   C22       1.0  0.49219999999999997  0.11920000000000008  0.8975  1.0000
  C   C23       1.0  0.007800000000000027  0.3807999999999998  0.10249999999999997  1.0000
  C   C24       1.0  0.9921999999999999  0.6192000000000001  0.8975  1.0000
  C   C25       1.0  0.1619  0.767  0.1191  1.0000
  C   C26       1.0  0.8381000000000001  0.23299999999999998  0.8808999999999999  1.0000
  C   C27       1.0  0.6618999999999999  0.2669999999999999  0.1191  1.0000
  C   C28       1.0  0.3381  0.733  0.8808999999999999  1.0000
  C   C29       1.0  0.8381000000000001  0.767  0.3809  1.0000
  C   C30       1.0  0.16189999999999996  0.23299999999999998  0.6190999999999999  1.0000
  C   C31       1.0  0.3381  0.2669999999999999  0.3809  1.0000
  C   C32       1.0  0.6618999999999999  0.733  0.6190999999999999  1.0000
