data_image0
_chemical_formula_structural       La2Sb4Au4La2
_chemical_formula_sum              "La4 Sb4 Au4"
_cell_length_a       4.63839
_cell_length_b       4.63839
_cell_length_c       16.83143
_cell_angle_alpha    90.0
_cell_angle_beta     90.0
_cell_angle_gamma    119.99999999999999

_space_group_name_H-M_alt    "P 1"
_space_group_IT_number       1

loop_
  _space_group_symop_operation_xyz
  'x, y, z'

loop_
  _atom_site_type_symbol
  _atom_site_label
  _atom_site_symmetry_multiplicity
  _atom_site_fract_x
  _atom_site_fract_y
  _atom_site_fract_z
  _atom_site_occupancy
  La  La1       1.0  0.0  0.0  0.0  1.0000
  La  La2       1.0  0.0  0.0  0.5  1.0000
  Sb  Sb1       1.0  0.333333  0.666667  0.1128  1.0000
  Sb  Sb2       1.0  0.6666669999999999  0.333333  0.8872  1.0000
  Sb  Sb3       1.0  0.6666669999999999  0.333333  0.6128000000000001  1.0000
  Sb  Sb4       1.0  0.333333  0.666667  0.38720000000000004  1.0000
  Au  Au1       1.0  0.333333  0.666667  0.6574200000000002  1.0000
  Au  Au2       1.0  0.6666669999999999  0.333333  0.34257999999999994  1.0000
  Au  Au3       1.0  0.6666669999999999  0.333333  0.15742000000000012  1.0000
  Au  Au4       1.0  0.333333  0.666667  0.8425799999999999  1.0000
  La  La3       1.0  0.0  0.0  0.25  1.0000
  La  La4       1.0  0.0  0.0  0.7500000000000001  1.0000
