data_image0
_chemical_formula_structural       Cu6Se4
_chemical_formula_sum              "Cu6 Se4"
_cell_length_a       6.469
_cell_length_b       6.469
_cell_length_c       4.203
_cell_angle_alpha    90.0
_cell_angle_beta     90.0
_cell_angle_gamma    90.0

_space_group_name_H-M_alt    "P 1"
_space_group_IT_number       1

loop_
  _space_group_symop_operation_xyz
  'x, y, z'

loop_
  _atom_site_type_symbol
  _atom_site_label
  _atom_site_symmetry_multiplicity
  _atom_site_fract_x
  _atom_site_fract_y
  _atom_site_fract_z
  _atom_site_occupancy
  Cu  Cu1       1.0  0.0  0.0  0.0  1.0000
  Cu  Cu2       1.0  0.5  0.5  0.0  1.0000
  Cu  Cu3       1.0  0.353  0.8529999999999999  0.25  1.0000
  Cu  Cu4       1.0  0.8529999999999999  0.647  0.75  1.0000
  Cu  Cu5       1.0  0.647  0.14700000000000013  0.25  1.0000
  Cu  Cu6       1.0  0.14700000000000013  0.353  0.75  1.0000
  Se  Se1       1.0  0.225  0.725  0.75  1.0000
  Se  Se2       1.0  0.725  0.775  0.25  1.0000
  Se  Se3       1.0  0.775  0.275  0.75  1.0000
  Se  Se4       1.0  0.275  0.225  0.25  1.0000
