data_image0
_chemical_formula_structural       Li4Yb4P16O48
_chemical_formula_sum              "Li4 Yb4 P16 O48"
_cell_length_a       16.194
_cell_length_b       7.024
_cell_length_c       9.498
_cell_angle_alpha    90.0
_cell_angle_beta     125.90999999999998
_cell_angle_gamma    90.0

_space_group_name_H-M_alt    "P 1"
_space_group_IT_number       1

loop_
  _space_group_symop_operation_xyz
  'x, y, z'

loop_
  _atom_site_type_symbol
  _atom_site_label
  _atom_site_symmetry_multiplicity
  _atom_site_fract_x
  _atom_site_fract_y
  _atom_site_fract_z
  _atom_site_occupancy
  Li  Li1       1.0  0.0  0.294  0.7500000000000001  1.0000
  Li  Li2       1.0  0.5  0.794  0.7500000000000001  1.0000
  Li  Li3       1.0  0.0  0.706  0.2499999999999999  1.0000
  Li  Li4       1.0  0.5  0.20600000000000002  0.2499999999999999  1.0000
  Yb  Yb1       1.0  0.0  0.20382  0.25  1.0000
  Yb  Yb2       1.0  0.5  0.70382  0.25  1.0000
  Yb  Yb3       1.0  0.0  0.79618  0.7500000000000001  1.0000
  Yb  Yb4       1.0  0.5  0.29617999999999994  0.7500000000000001  1.0000
  P   P1        1.0  0.13736  0.4497  0.11650000000000002  1.0000
  P   P2        1.0  0.86264  0.4497  0.3835  1.0000
  P   P3        1.0  0.63736  0.9497  0.11650000000000002  1.0000
  P   P4        1.0  0.36263999999999996  0.9497  0.3835  1.0000
  P   P5        1.0  0.86264  0.5503  0.8835  1.0000
  P   P6        1.0  0.13736000000000004  0.5503  0.6165000000000002  1.0000
  P   P7        1.0  0.36263999999999996  0.05030000000000001  0.8835  1.0000
  P   P8        1.0  0.6373600000000001  0.05030000000000001  0.6165000000000002  1.0000
  P   P9        1.0  0.85435  0.1483  0.806  1.0000
  P   P10       1.0  0.14564999999999997  0.1483  0.6940000000000001  1.0000
  P   P11       1.0  0.35435000000000016  0.6483  0.806  1.0000
  P   P12       1.0  0.64565  0.6483  0.6940000000000001  1.0000
  P   P13       1.0  0.14564999999999995  0.8517  0.19399999999999995  1.0000
  P   P14       1.0  0.85435  0.8517  0.30600000000000005  1.0000
  P   P15       1.0  0.64565  0.3517  0.19399999999999995  1.0000
  P   P16       1.0  0.35435000000000016  0.3517  0.30600000000000005  1.0000
  O   O1        1.0  0.1127  0.2852  0.1851  1.0000
  O   O2        1.0  0.8873  0.2852  0.31490000000000007  1.0000
  O   O3        1.0  0.6127  0.7852  0.1851  1.0000
  O   O4        1.0  0.3873  0.7852  0.31490000000000007  1.0000
  O   O5        1.0  0.8873  0.7148  0.8149  1.0000
  O   O6        1.0  0.11269999999999998  0.7148  0.6851  1.0000
  O   O7        1.0  0.3873  0.2148  0.8149  1.0000
  O   O8        1.0  0.6127  0.2148  0.6851  1.0000
  O   O9        1.0  0.9304000000000001  0.0808  0.7772  1.0000
  O   O10       1.0  0.0695999999999999  0.0808  0.7228  1.0000
  O   O11       1.0  0.4304000000000001  0.5808  0.7772  1.0000
  O   O12       1.0  0.5695999999999999  0.5808  0.7228  1.0000
  O   O13       1.0  0.0695999999999999  0.9192  0.22280000000000003  1.0000
  O   O14       1.0  0.9304000000000001  0.9192  0.2772000000000001  1.0000
  O   O15       1.0  0.5695999999999999  0.4192  0.22280000000000003  1.0000
  O   O16       1.0  0.4304000000000001  0.4192  0.2772000000000001  1.0000
  O   O17       1.0  0.8721  0.1164  0.9765000000000001  1.0000
  O   O18       1.0  0.12790000000000004  0.1164  0.5235  1.0000
  O   O19       1.0  0.3721000000000001  0.6164000000000001  0.9765000000000001  1.0000
  O   O20       1.0  0.6279  0.6164000000000001  0.5235  1.0000
  O   O21       1.0  0.1279  0.8835999999999999  0.023499999999999858  1.0000
  O   O22       1.0  0.8721  0.8835999999999999  0.4765000000000002  1.0000
  O   O23       1.0  0.6279  0.3836  0.023499999999999858  1.0000
  O   O24       1.0  0.37210000000000015  0.3836  0.4765000000000002  1.0000
  O   O25       1.0  0.8442  0.3717  0.7656  1.0000
  O   O26       1.0  0.1558000000000001  0.3717  0.7344000000000002  1.0000
  O   O27       1.0  0.34419999999999984  0.8716999999999999  0.7656  1.0000
  O   O28       1.0  0.6558  0.8716999999999999  0.7344000000000002  1.0000
  O   O29       1.0  0.15580000000000005  0.6283000000000001  0.23440000000000005  1.0000
  O   O30       1.0  0.8442  0.6283000000000001  0.2656000000000001  1.0000
  O   O31       1.0  0.6558  0.12830000000000003  0.23440000000000005  1.0000
  O   O32       1.0  0.34419999999999984  0.12830000000000003  0.2656000000000001  1.0000
  O   O33       1.0  0.7453  0.0757  0.6493  1.0000
  O   O34       1.0  0.25470000000000004  0.0757  0.8507000000000001  1.0000
  O   O35       1.0  0.24529999999999985  0.5757  0.6493  1.0000
  O   O36       1.0  0.7547  0.5757  0.8507000000000001  1.0000
  O   O37       1.0  0.25470000000000004  0.9243  0.35070000000000007  1.0000
  O   O38       1.0  0.7453  0.9243  0.14930000000000002  1.0000
  O   O39       1.0  0.7547  0.4243  0.35070000000000007  1.0000
  O   O40       1.0  0.24529999999999985  0.4243  0.14930000000000002  1.0000
  O   O41       1.0  0.06470000000000002  0.4987  0.9274  1.0000
  O   O42       1.0  0.9353  0.4987  0.5726000000000001  1.0000
  O   O43       1.0  0.5647  0.9986999999999999  0.9274  1.0000
  O   O44       1.0  0.4353  0.9986999999999999  0.5726000000000001  1.0000
  O   O45       1.0  0.9353  0.5013000000000001  0.0726  1.0000
  O   O46       1.0  0.06470000000000004  0.5013000000000001  0.42740000000000006  1.0000
  O   O47       1.0  0.43529999999999996  0.0013000000000000234  0.0726  1.0000
  O   O48       1.0  0.5647  0.0013000000000000234  0.42740000000000006  1.0000
