data_image0
_chemical_formula_structural       S32Ga16Rb16
_chemical_formula_sum              "S32 Ga16 Rb16"
_cell_length_a       10.484
_cell_length_b       10.468
_cell_length_c       15.390000000000002
_cell_angle_alpha    90.0
_cell_angle_beta     99.69000000000001
_cell_angle_gamma    90.0

_space_group_name_H-M_alt    "P 1"
_space_group_IT_number       1

loop_
  _space_group_symop_operation_xyz
  'x, y, z'

loop_
  _atom_site_type_symbol
  _atom_site_label
  _atom_site_symmetry_multiplicity
  _atom_site_fract_x
  _atom_site_fract_y
  _atom_site_fract_z
  _atom_site_occupancy
  S   S1        1.0  0.2542  0.1878  0.25028  1.0000
  S   S2        1.0  0.7458000000000001  0.1878  0.24972  1.0000
  S   S3        1.0  0.7542  0.6877999999999999  0.25028  1.0000
  S   S4        1.0  0.24580000000000005  0.6877999999999999  0.24972  1.0000
  S   S5        1.0  0.7458000000000001  0.8122  0.7497199999999999  1.0000
  S   S6        1.0  0.2542  0.8122  0.7502800000000001  1.0000
  S   S7        1.0  0.24580000000000005  0.31220000000000003  0.7497199999999999  1.0000
  S   S8        1.0  0.7542  0.31220000000000003  0.7502800000000001  1.0000
  S   S9        1.0  0.20800000000000005  0.43749999999999994  0.07999999999999999  1.0000
  S   S10       1.0  0.7920000000000001  0.43749999999999994  0.42000000000000004  1.0000
  S   S11       1.0  0.708  0.9375  0.07999999999999999  1.0000
  S   S12       1.0  0.292  0.9375  0.42000000000000004  1.0000
  S   S13       1.0  0.7920000000000001  0.5625  0.9199999999999999  1.0000
  S   S14       1.0  0.20800000000000005  0.5625  0.58  1.0000
  S   S15       1.0  0.2919999999999999  0.06250000000000006  0.9199999999999999  1.0000
  S   S16       1.0  0.708  0.06250000000000006  0.58  1.0000
  S   S17       1.0  0.0  0.4426  0.25  1.0000
  S   S18       1.0  0.5  0.9425999999999999  0.25  1.0000
  S   S19       1.0  0.0  0.5574  0.75  1.0000
  S   S20       1.0  0.5  0.0574  0.75  1.0000
  S   S21       1.0  0.5  0.4324  0.25  1.0000
  S   S22       1.0  0.0  0.9324  0.25  1.0000
  S   S23       1.0  0.5  0.5675999999999999  0.75  1.0000
  S   S24       1.0  0.0  0.0676  0.75  1.0000
  S   S25       1.0  0.04360000000000001  0.1877  0.4239  1.0000
  S   S26       1.0  0.9564  0.1877  0.0761  1.0000
  S   S27       1.0  0.5436  0.6877  0.4239  1.0000
  S   S28       1.0  0.45640000000000003  0.6877  0.0761  1.0000
  S   S29       1.0  0.9564  0.8123  0.5761  1.0000
  S   S30       1.0  0.04359999999999999  0.8123  0.9238999999999999  1.0000
  S   S31       1.0  0.45640000000000003  0.3123  0.5761  1.0000
  S   S32       1.0  0.5436000000000001  0.3123  0.9238999999999999  1.0000
  Ga  Ga1       1.0  0.10272  0.31066  0.16745  1.0000
  Ga  Ga2       1.0  0.8972800000000001  0.31066  0.33255  1.0000
  Ga  Ga3       1.0  0.60272  0.8106599999999998  0.16745  1.0000
  Ga  Ga4       1.0  0.39727999999999997  0.8106599999999998  0.33255  1.0000
  Ga  Ga5       1.0  0.8972800000000001  0.6893400000000001  0.8325499999999999  1.0000
  Ga  Ga6       1.0  0.10272  0.6893400000000001  0.66745  1.0000
  Ga  Ga7       1.0  0.39727999999999997  0.18934  0.8325499999999999  1.0000
  Ga  Ga8       1.0  0.60272  0.18934  0.66745  1.0000
  Ga  Ga9       1.0  0.14382  0.06425  0.33286  1.0000
  Ga  Ga10      1.0  0.8561799999999999  0.06425  0.16714  1.0000
  Ga  Ga11      1.0  0.6438200000000001  0.56425  0.33286  1.0000
  Ga  Ga12      1.0  0.35618  0.56425  0.16714  1.0000
  Ga  Ga13      1.0  0.8561799999999999  0.9357499999999999  0.6671400000000001  1.0000
  Ga  Ga14      1.0  0.14381999999999998  0.9357499999999999  0.8328599999999999  1.0000
  Ga  Ga15      1.0  0.35618  0.43574999999999997  0.6671400000000001  1.0000
  Ga  Ga16      1.0  0.6438200000000001  0.43574999999999997  0.8328599999999999  1.0000
  Rb  Rb1       1.0  0.4632500000000001  0.1874  0.10625999999999997  1.0000
  Rb  Rb2       1.0  0.53675  0.1874  0.39374000000000003  1.0000
  Rb  Rb3       1.0  0.96325  0.6874  0.10625999999999997  1.0000
  Rb  Rb4       1.0  0.03674999999999996  0.6874  0.39374000000000003  1.0000
  Rb  Rb5       1.0  0.53675  0.8125999999999999  0.89374  1.0000
  Rb  Rb6       1.0  0.4632500000000001  0.8125999999999999  0.60626  1.0000
  Rb  Rb7       1.0  0.036749999999999956  0.3126  0.89374  1.0000
  Rb  Rb8       1.0  0.96325  0.3126  0.60626  1.0000
  Rb  Rb9       1.0  0.28585  0.4385  0.39527  1.0000
  Rb  Rb10      1.0  0.7141500000000001  0.4385  0.10472999999999999  1.0000
  Rb  Rb11      1.0  0.78585  0.9385  0.39527  1.0000
  Rb  Rb12      1.0  0.21415000000000003  0.9385  0.10472999999999999  1.0000
  Rb  Rb13      1.0  0.7141500000000001  0.5615  0.60473  1.0000
  Rb  Rb14      1.0  0.28585  0.5615  0.89527  1.0000
  Rb  Rb15      1.0  0.21415000000000003  0.06149999999999999  0.60473  1.0000
  Rb  Rb16      1.0  0.78585  0.06149999999999999  0.89527  1.0000
