data_image0
_chemical_formula_structural       N2Br2H8
_chemical_formula_sum              "N2 Br2 H8"
_cell_length_a       5.826
_cell_length_b       5.826
_cell_length_c       4.136
_cell_angle_alpha    90.0
_cell_angle_beta     90.0
_cell_angle_gamma    90.0

_space_group_name_H-M_alt    "P 1"
_space_group_IT_number       1

loop_
  _space_group_symop_operation_xyz
  'x, y, z'

loop_
  _atom_site_type_symbol
  _atom_site_label
  _atom_site_symmetry_multiplicity
  _atom_site_fract_x
  _atom_site_fract_y
  _atom_site_fract_z
  _atom_site_occupancy
  N   N1        1.0  0.0  0.0  0.0  1.0000
  N   N2        1.0  0.5  0.5  0.0  1.0000
  Br  Br1       1.0  0.0  0.5  0.46999999999999986  1.0000
  Br  Br2       1.0  0.5  0.0  0.53  1.0000
  H   H1        1.0  0.0  0.147  0.147  1.0000
  H   H2        1.0  0.0  0.853  0.147  1.0000
  H   H3        1.0  0.5  0.6470000000000001  0.8529999999999999  1.0000
  H   H4        1.0  0.5  0.353  0.8529999999999999  1.0000
  H   H5        1.0  0.853  0.0  0.8529999999999999  1.0000
  H   H6        1.0  0.147  0.0  0.8529999999999999  1.0000
  H   H7        1.0  0.353  0.5  0.147  1.0000
  H   H8        1.0  0.6470000000000001  0.5  0.147  1.0000
