data_image0
_chemical_formula_structural       Pd2O2
_chemical_formula_sum              "Pd2 O2"
_cell_length_a       3.03
_cell_length_b       3.03
_cell_length_c       5.33
_cell_angle_alpha    90.0
_cell_angle_beta     90.0
_cell_angle_gamma    90.0

_space_group_name_H-M_alt    "P 1"
_space_group_IT_number       1

loop_
  _space_group_symop_operation_xyz
  'x, y, z'

loop_
  _atom_site_type_symbol
  _atom_site_label
  _atom_site_symmetry_multiplicity
  _atom_site_fract_x
  _atom_site_fract_y
  _atom_site_fract_z
  _atom_site_occupancy
  Pd  Pd1       1.0  0.0  0.0  0.0  1.0000
  Pd  Pd2       1.0  0.49999999999999994  0.49999999999999994  0.5  1.0000
  O   O1        1.0  0.4999999999999999  0.0  0.25  1.0000
  O   O2        1.0  0.49999999999999994  0.0  0.75  1.0000
