data_image0
_chemical_formula_structural       Cs12Ni6C24N24O6H12
_chemical_formula_sum              "Cs12 Ni6 C24 N24 O6 H12"
_cell_length_a       9.526
_cell_length_b       9.526
_cell_length_c       19.043
_cell_angle_alpha    90.0
_cell_angle_beta     90.0
_cell_angle_gamma    119.99999999999999

_space_group_name_H-M_alt    "P 1"
_space_group_IT_number       1

loop_
  _space_group_symop_operation_xyz
  'x, y, z'

loop_
  _atom_site_type_symbol
  _atom_site_label
  _atom_site_symmetry_multiplicity
  _atom_site_fract_x
  _atom_site_fract_y
  _atom_site_fract_z
  _atom_site_occupancy
  Cs  Cs1       1.0  0.35061900000000007  0.43709500000000007  7.6e-05  1.0000
  Cs  Cs2       1.0  0.649381  0.562905  0.500076  1.0000
  Cs  Cs3       1.0  0.5629050000000001  0.9135240000000001  0.3334093333333334  1.0000
  Cs  Cs4       1.0  0.08647600000000007  0.6493810000000001  0.6667426666666667  1.0000
  Cs  Cs5       1.0  0.913524  0.35061900000000007  0.16674266666666665  1.0000
  Cs  Cs6       1.0  0.43709500000000007  0.086476  0.8334093333333334  1.0000
  Cs  Cs7       1.0  0.3367150000000001  0.4169890000000001  0.253788  1.0000
  Cs  Cs8       1.0  0.6632849999999999  0.583011  0.753788  1.0000
  Cs  Cs9       1.0  0.583011  0.919726  0.5871213333333334  1.0000
  Cs  Cs10      1.0  0.08027400000000003  0.6632849999999999  0.9204546666666668  1.0000
  Cs  Cs11      1.0  0.919726  0.33671500000000004  0.4204546666666667  1.0000
  Cs  Cs12      1.0  0.4169890000000001  0.08027400000000001  0.0871213333333334  1.0000
  Ni  Ni1       1.0  0.03301000000000012  0.8625000000000003  0.294248  1.0000
  Ni  Ni2       1.0  0.96699  0.13749999999999984  0.7942480000000001  1.0000
  Ni  Ni3       1.0  0.13749999999999984  0.17050999999999994  0.6275813333333333  1.0000
  Ni  Ni4       1.0  0.8294900000000001  0.9669899999999999  0.9609146666666667  1.0000
  Ni  Ni5       1.0  0.17050999999999994  0.03301000000000007  0.4609146666666667  1.0000
  Ni  Ni6       1.0  0.8625000000000003  0.8294900000000001  0.12758133333333332  1.0000
  C   C1        1.0  0.9847  0.03059999999999996  0.29249  1.0000
  C   C2        1.0  0.015299999999999953  0.9694  0.79249  1.0000
  C   C3        1.0  0.9694000000000002  0.9541000000000003  0.6258233333333334  1.0000
  C   C4        1.0  0.04589999999999984  0.015299999999999954  0.9591566666666668  1.0000
  C   C5        1.0  0.9541000000000003  0.9847  0.45915666666666666  1.0000
  C   C6        1.0  0.030599999999999964  0.04589999999999983  0.1258233333333334  1.0000
  C   C7        1.0  0.08929999999999999  0.6996  0.29608000000000007  1.0000
  C   C8        1.0  0.9107000000000002  0.30040000000000006  0.7960800000000001  1.0000
  C   C9        1.0  0.3004  0.38969999999999994  0.6294133333333334  1.0000
  C   C10       1.0  0.6103000000000002  0.9107000000000002  0.9627466666666666  1.0000
  C   C11       1.0  0.38969999999999994  0.08929999999999999  0.46274666666666675  1.0000
  C   C12       1.0  0.6996  0.6103000000000001  0.12941333333333338  1.0000
  C   C13       1.0  0.2479  0.008499999999999952  0.27293  1.0000
  C   C14       1.0  0.7521  0.9915  0.77293  1.0000
  C   C15       1.0  0.9915  0.23940000000000008  0.6062633333333334  1.0000
  C   C16       1.0  0.7605999999999999  0.7521  0.9395966666666666  1.0000
  C   C17       1.0  0.23940000000000006  0.2479  0.4395966666666667  1.0000
  C   C18       1.0  0.008500000000000018  0.7606  0.10626333333333338  1.0000
  C   C19       1.0  0.8167000000000001  0.7162000000000002  0.31529  1.0000
  C   C20       1.0  0.18330000000000002  0.2838  0.8152900000000001  1.0000
  C   C21       1.0  0.28379999999999994  0.10049999999999992  0.6486233333333333  1.0000
  C   C22       1.0  0.8995000000000002  0.18330000000000002  0.9819566666666666  1.0000
  C   C23       1.0  0.10049999999999995  0.8167  0.4819566666666667  1.0000
  C   C24       1.0  0.7162000000000002  0.8995000000000002  0.14862333333333333  1.0000
  N   N1        1.0  0.9568000000000001  0.13549999999999995  0.29186  1.0000
  N   N2        1.0  0.04319999999999999  0.8645  0.7918600000000001  1.0000
  N   N3        1.0  0.8645  0.8213000000000003  0.6251933333333334  1.0000
  N   N4        1.0  0.17869999999999986  0.04319999999999999  0.9585266666666667  1.0000
  N   N5        1.0  0.8213000000000003  0.9568  0.4585266666666667  1.0000
  N   N6        1.0  0.13549999999999995  0.1786999999999999  0.12519333333333327  1.0000
  N   N7        1.0  0.1307000000000001  0.6040000000000002  0.29681  1.0000
  N   N8        1.0  0.8693  0.39599999999999996  0.79681  1.0000
  N   N9        1.0  0.3959999999999999  0.5267  0.6301433333333334  1.0000
  N   N10       1.0  0.4733000000000001  0.8693  0.9634766666666668  1.0000
  N   N11       1.0  0.5267  0.13070000000000007  0.4634766666666667  1.0000
  N   N12       1.0  0.6040000000000001  0.47330000000000005  0.13014333333333328  1.0000
  N   N13       1.0  0.38190000000000013  0.09749999999999992  0.25973  1.0000
  N   N14       1.0  0.6181  0.9025000000000001  0.75973  1.0000
  N   N15       1.0  0.9025000000000001  0.2844000000000002  0.5930633333333333  1.0000
  N   N16       1.0  0.7155999999999999  0.6181  0.9263966666666666  1.0000
  N   N17       1.0  0.28440000000000026  0.38190000000000013  0.42639666666666665  1.0000
  N   N18       1.0  0.09749999999999992  0.7155999999999998  0.09306333333333328  1.0000
  N   N19       1.0  0.6822000000000003  0.6265000000000002  0.32912  1.0000
  N   N20       1.0  0.31779999999999997  0.3735  0.8291200000000002  1.0000
  N   N21       1.0  0.37349999999999994  0.05570000000000009  0.6624533333333333  1.0000
  N   N22       1.0  0.9443  0.3177999999999999  0.9957866666666667  1.0000
  N   N23       1.0  0.055700000000000076  0.6822000000000001  0.49578666666666676  1.0000
  N   N24       1.0  0.6265000000000001  0.9442999999999999  0.16245333333333334  1.0000
  O   O1        1.0  0.3238000000000001  0.6194000000000002  0.12817  1.0000
  O   O2        1.0  0.6761999999999999  0.3806  0.62817  1.0000
  O   O3        1.0  0.38059999999999994  0.7043999999999999  0.4615033333333334  1.0000
  O   O4        1.0  0.29560000000000003  0.6761999999999999  0.7948366666666666  1.0000
  O   O5        1.0  0.7044  0.32380000000000003  0.29483666666666664  1.0000
  O   O6        1.0  0.6194000000000001  0.29560000000000003  0.9615033333333335  1.0000
  H   H1        1.0  0.2570000000000001  0.6480000000000002  0.114  1.0000
  H   H2        1.0  0.7429999999999999  0.35199999999999987  0.614  1.0000
  H   H3        1.0  0.3519999999999999  0.609  0.4473333333333333  1.0000
  H   H4        1.0  0.39100000000000007  0.7429999999999999  0.7806666666666666  1.0000
  H   H5        1.0  0.609  0.25700000000000006  0.2806666666666667  1.0000
  H   H6        1.0  0.6480000000000001  0.39100000000000007  0.9473333333333334  1.0000
  H   H7        1.0  0.413  0.697  0.134  1.0000
  H   H8        1.0  0.587  0.30300000000000005  0.634  1.0000
  H   H9        1.0  0.3030000000000001  0.716  0.4673333333333333  1.0000
  H   H10       1.0  0.284  0.587  0.8006666666666666  1.0000
  H   H11       1.0  0.716  0.413  0.30066666666666664  1.0000
  H   H12       1.0  0.697  0.28400000000000003  0.9673333333333335  1.0000
