data_image0
_chemical_formula_structural       Eu4Mo4O16
_chemical_formula_sum              "Eu4 Mo4 O16"
_cell_length_a       5.23867
_cell_length_b       5.23867
_cell_length_c       11.54843
_cell_angle_alpha    90.0
_cell_angle_beta     90.0
_cell_angle_gamma    90.0

_space_group_name_H-M_alt    "P 1"
_space_group_IT_number       1

loop_
  _space_group_symop_operation_xyz
  'x, y, z'

loop_
  _atom_site_type_symbol
  _atom_site_label
  _atom_site_symmetry_multiplicity
  _atom_site_fract_x
  _atom_site_fract_y
  _atom_site_fract_z
  _atom_site_occupancy
  Eu  Eu1       1.0  0.0  0.0  0.5  0.5000
  Eu  Eu2       1.0  0.5  0.5  0.0  0.5000
  Eu  Eu3       1.0  0.0  0.5  0.7500000000000001  0.5000
  Eu  Eu4       1.0  0.5  0.0  0.25  0.5000
  Mo  Mo1       1.0  0.0  0.0  0.0  1.0000
  Mo  Mo2       1.0  0.5  0.5  0.5  1.0000
  Mo  Mo3       1.0  0.0  0.5  0.25  1.0000
  Mo  Mo4       1.0  0.5  0.0  0.7500000000000001  1.0000
  O   O1        1.0  0.2463  0.1491  0.0839  1.0000
  O   O2        1.0  0.25370000000000004  0.3509  0.5839  1.0000
  O   O3        1.0  0.8509  0.7463  0.3339  1.0000
  O   O4        1.0  0.6491  0.7537  0.8339  1.0000
  O   O5        1.0  0.7463  0.6491  0.5839  1.0000
  O   O6        1.0  0.7537  0.8509  0.0839  1.0000
  O   O7        1.0  0.3509  0.2463  0.8339  1.0000
  O   O8        1.0  0.1491  0.25370000000000004  0.3339  1.0000
  O   O9        1.0  0.7537  0.3509  0.1661  1.0000
  O   O10       1.0  0.7463  0.1491  0.6661  1.0000
  O   O11       1.0  0.6491  0.25370000000000004  0.4161000000000001  1.0000
  O   O12       1.0  0.8509  0.2463  0.9161  1.0000
  O   O13       1.0  0.25370000000000004  0.8509  0.6661  1.0000
  O   O14       1.0  0.2463  0.6491  0.1661  1.0000
  O   O15       1.0  0.1491  0.7537  0.9161  1.0000
  O   O16       1.0  0.3509  0.7463  0.4161000000000001  1.0000
  Ca  Ca1       1.0  0.0  0.0  0.5  0.2500
  Ca  Ca2       1.0  0.5  0.5  0.0  0.2500
  Ca  Ca3       1.0  0.0  0.5  0.7500000000000001  0.2500
  Ca  Ca4       1.0  0.5  0.0  0.25  0.2500
