data_image0
_chemical_formula_structural       Ru4K4O16
_chemical_formula_sum              "Ru4 K4 O16"
_cell_length_a       5.609
_cell_length_b       5.609
_cell_length_c       12.991
_cell_angle_alpha    90.0
_cell_angle_beta     90.0
_cell_angle_gamma    90.0

_space_group_name_H-M_alt    "P 1"
_space_group_IT_number       1

loop_
  _space_group_symop_operation_xyz
  'x, y, z'

loop_
  _atom_site_type_symbol
  _atom_site_label
  _atom_site_symmetry_multiplicity
  _atom_site_fract_x
  _atom_site_fract_y
  _atom_site_fract_z
  _atom_site_occupancy
  Ru  Ru1       1.0  0.0  0.0  0.0  1.0000
  Ru  Ru2       1.0  0.0  0.5  0.25  1.0000
  Ru  Ru3       1.0  0.5  0.5  0.5  1.0000
  Ru  Ru4       1.0  0.5  0.0  0.75  1.0000
  K   K1        1.0  0.0  0.0  0.5  1.0000
  K   K2        1.0  0.0  0.5  0.75  1.0000
  K   K3        1.0  0.5  0.5  0.0  1.0000
  K   K4        1.0  0.5  0.0  0.25  1.0000
  O   O1        1.0  0.24399999999999994  0.117  0.073  1.0000
  O   O2        1.0  0.7559999999999999  0.883  0.073  1.0000
  O   O3        1.0  0.24399999999999994  0.617  0.17700000000000002  1.0000
  O   O4        1.0  0.7559999999999999  0.383  0.17700000000000002  1.0000
  O   O5        1.0  0.883  0.24399999999999994  0.927  1.0000
  O   O6        1.0  0.117  0.7559999999999999  0.927  1.0000
  O   O7        1.0  0.883  0.744  0.323  1.0000
  O   O8        1.0  0.117  0.256  0.323  1.0000
  O   O9        1.0  0.744  0.617  0.573  1.0000
  O   O10       1.0  0.256  0.383  0.573  1.0000
  O   O11       1.0  0.744  0.117  0.677  1.0000
  O   O12       1.0  0.256  0.883  0.677  1.0000
  O   O13       1.0  0.383  0.744  0.427  1.0000
  O   O14       1.0  0.617  0.256  0.427  1.0000
  O   O15       1.0  0.383  0.24399999999999994  0.823  1.0000
  O   O16       1.0  0.617  0.7559999999999999  0.823  1.0000
