data_image0
_chemical_formula_structural       Ge128S256
_chemical_formula_sum              "Ge128 S256"
_cell_length_a       23.361
_cell_length_b       23.361
_cell_length_c       39.239
_cell_angle_alpha    90.0
_cell_angle_beta     90.0
_cell_angle_gamma    90.0

_space_group_name_H-M_alt    "P 1"
_space_group_IT_number       1

loop_
  _space_group_symop_operation_xyz
  'x, y, z'

loop_
  _atom_site_type_symbol
  _atom_site_label
  _atom_site_symmetry_multiplicity
  _atom_site_fract_x
  _atom_site_fract_y
  _atom_site_fract_z
  _atom_site_occupancy
  Ge  Ge1       1.0  0.57994  0.09612  0.09209999999999999  1.0000
  Ge  Ge2       1.0  0.9200599999999999  0.90388  0.5921  1.0000
  Ge  Ge3       1.0  0.15388000000000002  0.3299400000000001  0.34209999999999996  1.0000
  Ge  Ge4       1.0  0.34612  0.67006  0.8420999999999998  1.0000
  Ge  Ge5       1.0  0.9200599999999999  0.09612  0.9079  1.0000
  Ge  Ge6       1.0  0.57994  0.90388  0.40790000000000004  1.0000
  Ge  Ge7       1.0  0.34612  0.3299400000000001  0.6578999999999999  1.0000
  Ge  Ge8       1.0  0.15388000000000002  0.67006  0.1579  1.0000
  Ge  Ge9       1.0  0.07994000000000012  0.59612  0.5921  1.0000
  Ge  Ge10      1.0  0.42006  0.40387999999999996  0.09209999999999999  1.0000
  Ge  Ge11      1.0  0.65388  0.82994  0.8420999999999998  1.0000
  Ge  Ge12      1.0  0.84612  0.17006  0.34209999999999996  1.0000
  Ge  Ge13      1.0  0.42006  0.59612  0.40790000000000004  1.0000
  Ge  Ge14      1.0  0.07994000000000012  0.40387999999999996  0.9079  1.0000
  Ge  Ge15      1.0  0.84612  0.82994  0.1579  1.0000
  Ge  Ge16      1.0  0.65388  0.17006  0.6578999999999999  1.0000
  Ge  Ge17      1.0  0.42006  0.90388  0.9079  1.0000
  Ge  Ge18      1.0  0.07994000000000012  0.09612  0.40790000000000004  1.0000
  Ge  Ge19      1.0  0.84612  0.67006  0.6578999999999999  1.0000
  Ge  Ge20      1.0  0.65388  0.3299400000000001  0.1579  1.0000
  Ge  Ge21      1.0  0.07994000000000012  0.90388  0.09209999999999999  1.0000
  Ge  Ge22      1.0  0.42006  0.09612  0.5921  1.0000
  Ge  Ge23      1.0  0.65388  0.67006  0.34209999999999996  1.0000
  Ge  Ge24      1.0  0.84612  0.3299400000000001  0.8420999999999998  1.0000
  Ge  Ge25      1.0  0.9200599999999999  0.40387999999999996  0.40790000000000004  1.0000
  Ge  Ge26      1.0  0.57994  0.59612  0.9079  1.0000
  Ge  Ge27      1.0  0.34612  0.17006  0.1579  1.0000
  Ge  Ge28      1.0  0.15388000000000002  0.82994  0.6578999999999999  1.0000
  Ge  Ge29      1.0  0.57994  0.40387999999999996  0.5921  1.0000
  Ge  Ge30      1.0  0.9200599999999999  0.59612  0.09209999999999999  1.0000
  Ge  Ge31      1.0  0.15388000000000002  0.17006  0.8420999999999998  1.0000
  Ge  Ge32      1.0  0.34612  0.82994  0.34209999999999996  1.0000
  Ge  Ge33      1.0  0.67197  0.21947  0.0922  1.0000
  Ge  Ge34      1.0  0.82803  0.78053  0.5922000000000001  1.0000
  Ge  Ge35      1.0  0.03053  0.42196999999999996  0.3422  1.0000
  Ge  Ge36      1.0  0.46947  0.57803  0.8422  1.0000
  Ge  Ge37      1.0  0.82803  0.21947  0.9077999999999999  1.0000
  Ge  Ge38      1.0  0.67197  0.78053  0.4078  1.0000
  Ge  Ge39      1.0  0.46947  0.42196999999999996  0.6577999999999998  1.0000
  Ge  Ge40      1.0  0.03053  0.57803  0.1578  1.0000
  Ge  Ge41      1.0  0.17196999999999996  0.71947  0.5922000000000001  1.0000
  Ge  Ge42      1.0  0.32803000000000004  0.28053  0.0922  1.0000
  Ge  Ge43      1.0  0.53053  0.92197  0.8422  1.0000
  Ge  Ge44      1.0  0.9694699999999999  0.07803000000000004  0.3422  1.0000
  Ge  Ge45      1.0  0.32803000000000004  0.71947  0.4078  1.0000
  Ge  Ge46      1.0  0.17196999999999996  0.28053  0.9077999999999999  1.0000
  Ge  Ge47      1.0  0.9694699999999999  0.92197  0.1578  1.0000
  Ge  Ge48      1.0  0.53053  0.07803000000000004  0.6577999999999998  1.0000
  Ge  Ge49      1.0  0.32803000000000004  0.78053  0.9077999999999999  1.0000
  Ge  Ge50      1.0  0.17196999999999996  0.21947  0.4078  1.0000
  Ge  Ge51      1.0  0.9694699999999999  0.57803  0.6577999999999998  1.0000
  Ge  Ge52      1.0  0.53053  0.42196999999999996  0.1578  1.0000
  Ge  Ge53      1.0  0.17196999999999996  0.78053  0.0922  1.0000
  Ge  Ge54      1.0  0.32803000000000004  0.21947  0.5922000000000001  1.0000
  Ge  Ge55      1.0  0.53053  0.57803  0.3422  1.0000
  Ge  Ge56      1.0  0.9694699999999999  0.42196999999999996  0.8422  1.0000
  Ge  Ge57      1.0  0.82803  0.28053  0.4078  1.0000
  Ge  Ge58      1.0  0.67197  0.71947  0.9077999999999999  1.0000
  Ge  Ge59      1.0  0.46947  0.07803000000000004  0.1578  1.0000
  Ge  Ge60      1.0  0.03053  0.92197  0.6577999999999998  1.0000
  Ge  Ge61      1.0  0.67197  0.28053  0.5922000000000001  1.0000
  Ge  Ge62      1.0  0.82803  0.71947  0.0922  1.0000
  Ge  Ge63      1.0  0.03053  0.07803000000000004  0.8422  1.0000
  Ge  Ge64      1.0  0.46947  0.92197  0.3422  1.0000
  Ge  Ge65      1.0  0.56448  0.20371  0.02829  1.0000
  Ge  Ge66      1.0  0.9355199999999999  0.7962899999999999  0.52829  1.0000
  Ge  Ge67      1.0  0.04629  0.3144800000000001  0.2782899999999999  1.0000
  Ge  Ge68      1.0  0.45371  0.68552  0.7782899999999999  1.0000
  Ge  Ge69      1.0  0.9355199999999999  0.20371  0.9717099999999999  1.0000
  Ge  Ge70      1.0  0.56448  0.7962899999999999  0.47171  1.0000
  Ge  Ge71      1.0  0.45371  0.3144800000000001  0.72171  1.0000
  Ge  Ge72      1.0  0.04629  0.68552  0.22170999999999996  1.0000
  Ge  Ge73      1.0  0.06448000000000009  0.7037100000000002  0.52829  1.0000
  Ge  Ge74      1.0  0.43552  0.29629  0.02829  1.0000
  Ge  Ge75      1.0  0.5462899999999999  0.81448  0.7782899999999999  1.0000
  Ge  Ge76      1.0  0.95371  0.18552000000000002  0.2782899999999999  1.0000
  Ge  Ge77      1.0  0.43552  0.7037100000000002  0.47171  1.0000
  Ge  Ge78      1.0  0.06448000000000009  0.29629  0.9717099999999999  1.0000
  Ge  Ge79      1.0  0.95371  0.81448  0.22170999999999996  1.0000
  Ge  Ge80      1.0  0.5462899999999999  0.18552000000000002  0.72171  1.0000
  Ge  Ge81      1.0  0.43552  0.7962899999999999  0.9717099999999999  1.0000
  Ge  Ge82      1.0  0.06448000000000009  0.20371  0.47171  1.0000
  Ge  Ge83      1.0  0.95371  0.68552  0.72171  1.0000
  Ge  Ge84      1.0  0.5462899999999999  0.3144800000000001  0.22170999999999996  1.0000
  Ge  Ge85      1.0  0.06448000000000009  0.7962899999999999  0.02829  1.0000
  Ge  Ge86      1.0  0.43552  0.20371  0.52829  1.0000
  Ge  Ge87      1.0  0.5462899999999999  0.68552  0.2782899999999999  1.0000
  Ge  Ge88      1.0  0.95371  0.3144800000000001  0.7782899999999999  1.0000
  Ge  Ge89      1.0  0.9355199999999999  0.29629  0.47171  1.0000
  Ge  Ge90      1.0  0.56448  0.7037100000000002  0.9717099999999999  1.0000
  Ge  Ge91      1.0  0.45371  0.18552000000000002  0.22170999999999996  1.0000
  Ge  Ge92      1.0  0.04629  0.81448  0.72171  1.0000
  Ge  Ge93      1.0  0.56448  0.29629  0.52829  1.0000
  Ge  Ge94      1.0  0.9355199999999999  0.7037100000000002  0.02829  1.0000
  Ge  Ge95      1.0  0.04629  0.18552000000000002  0.7782899999999999  1.0000
  Ge  Ge96      1.0  0.45371  0.81448  0.2782899999999999  1.0000
  Ge  Ge97      1.0  0.68934  0.1122  0.02848  1.0000
  Ge  Ge98      1.0  0.8106599999999999  0.8878  0.52848  1.0000
  Ge  Ge99      1.0  0.1378  0.43934000000000006  0.27848  1.0000
  Ge  Ge100     1.0  0.3621999999999999  0.56066  0.77848  1.0000
  Ge  Ge101     1.0  0.8106599999999999  0.1122  0.9715199999999999  1.0000
  Ge  Ge102     1.0  0.68934  0.8878  0.47151999999999994  1.0000
  Ge  Ge103     1.0  0.3621999999999999  0.43934000000000006  0.7215199999999999  1.0000
  Ge  Ge104     1.0  0.1378  0.56066  0.22151999999999997  1.0000
  Ge  Ge105     1.0  0.18934000000000006  0.6122  0.52848  1.0000
  Ge  Ge106     1.0  0.31066000000000005  0.38780000000000003  0.02848  1.0000
  Ge  Ge107     1.0  0.6378  0.93934  0.77848  1.0000
  Ge  Ge108     1.0  0.8622  0.06066000000000005  0.27848  1.0000
  Ge  Ge109     1.0  0.31066000000000005  0.6122  0.47151999999999994  1.0000
  Ge  Ge110     1.0  0.18934000000000006  0.38780000000000003  0.9715199999999999  1.0000
  Ge  Ge111     1.0  0.8622  0.93934  0.22151999999999997  1.0000
  Ge  Ge112     1.0  0.6378  0.06066000000000005  0.7215199999999999  1.0000
  Ge  Ge113     1.0  0.31066000000000005  0.8878  0.9715199999999999  1.0000
  Ge  Ge114     1.0  0.18934000000000006  0.1122  0.47151999999999994  1.0000
  Ge  Ge115     1.0  0.8622  0.56066  0.7215199999999999  1.0000
  Ge  Ge116     1.0  0.6378  0.43934000000000006  0.22151999999999997  1.0000
  Ge  Ge117     1.0  0.18934000000000006  0.8878  0.02848  1.0000
  Ge  Ge118     1.0  0.31066000000000005  0.1122  0.52848  1.0000
  Ge  Ge119     1.0  0.6378  0.56066  0.27848  1.0000
  Ge  Ge120     1.0  0.8622  0.43934000000000006  0.77848  1.0000
  Ge  Ge121     1.0  0.8106599999999999  0.38780000000000003  0.47151999999999994  1.0000
  Ge  Ge122     1.0  0.68934  0.6122  0.9715199999999999  1.0000
  Ge  Ge123     1.0  0.3621999999999999  0.06066000000000005  0.22151999999999997  1.0000
  Ge  Ge124     1.0  0.1378  0.93934  0.7215199999999999  1.0000
  Ge  Ge125     1.0  0.68934  0.38780000000000003  0.52848  1.0000
  Ge  Ge126     1.0  0.8106599999999999  0.6122  0.02848  1.0000
  Ge  Ge127     1.0  0.1378  0.06066000000000005  0.77848  1.0000
  Ge  Ge128     1.0  0.3621999999999999  0.93934  0.27848  1.0000
  S   S1        1.0  0.6253  0.1583  0.12695  1.0000
  S   S2        1.0  0.8747  0.8416999999999999  0.6269499999999999  1.0000
  S   S3        1.0  0.0917  0.3752999999999999  0.37694999999999995  1.0000
  S   S4        1.0  0.4083  0.6247  0.8769499999999999  1.0000
  S   S5        1.0  0.8747  0.1583  0.87305  1.0000
  S   S6        1.0  0.6253  0.8416999999999999  0.37305  1.0000
  S   S7        1.0  0.4083  0.3752999999999999  0.6230499999999999  1.0000
  S   S8        1.0  0.0917  0.6247  0.12304999999999998  1.0000
  S   S9        1.0  0.12529999999999997  0.6583  0.6269499999999999  1.0000
  S   S10       1.0  0.37470000000000003  0.3417  0.12695  1.0000
  S   S11       1.0  0.5917  0.8753  0.8769499999999999  1.0000
  S   S12       1.0  0.9083  0.12470000000000002  0.37694999999999995  1.0000
  S   S13       1.0  0.37470000000000003  0.6583  0.37305  1.0000
  S   S14       1.0  0.12529999999999997  0.3417  0.87305  1.0000
  S   S15       1.0  0.9083  0.8753  0.12304999999999998  1.0000
  S   S16       1.0  0.5917  0.12470000000000002  0.6230499999999999  1.0000
  S   S17       1.0  0.37470000000000003  0.8416999999999999  0.87305  1.0000
  S   S18       1.0  0.12529999999999997  0.1583  0.37305  1.0000
  S   S19       1.0  0.9083  0.6247  0.6230499999999999  1.0000
  S   S20       1.0  0.5917  0.3752999999999999  0.12304999999999998  1.0000
  S   S21       1.0  0.12529999999999997  0.8416999999999999  0.12695  1.0000
  S   S22       1.0  0.37470000000000003  0.1583  0.6269499999999999  1.0000
  S   S23       1.0  0.5917  0.6247  0.37694999999999995  1.0000
  S   S24       1.0  0.9083  0.3752999999999999  0.8769499999999999  1.0000
  S   S25       1.0  0.8747  0.3417  0.37305  1.0000
  S   S26       1.0  0.6253  0.6583  0.87305  1.0000
  S   S27       1.0  0.4083  0.12470000000000002  0.12304999999999998  1.0000
  S   S28       1.0  0.0917  0.8753  0.6230499999999999  1.0000
  S   S29       1.0  0.6253  0.3417  0.6269499999999999  1.0000
  S   S30       1.0  0.8747  0.6583  0.12695  1.0000
  S   S31       1.0  0.0917  0.12470000000000002  0.8769499999999999  1.0000
  S   S32       1.0  0.4083  0.8753  0.37694999999999995  1.0000
  S   S33       1.0  0.513  0.1411  0.06112999999999998  1.0000
  S   S34       1.0  0.987  0.8589  0.56113  1.0000
  S   S35       1.0  0.10889999999999998  0.2629999999999999  0.31113  1.0000
  S   S36       1.0  0.3911  0.737  0.8111299999999999  1.0000
  S   S37       1.0  0.987  0.1411  0.93887  1.0000
  S   S38       1.0  0.513  0.8589  0.4388699999999999  1.0000
  S   S39       1.0  0.3911  0.2629999999999999  0.68887  1.0000
  S   S40       1.0  0.10889999999999998  0.737  0.18887  1.0000
  S   S41       1.0  0.012999999999999899  0.6411  0.56113  1.0000
  S   S42       1.0  0.48699999999999993  0.35889999999999994  0.06112999999999998  1.0000
  S   S43       1.0  0.6089  0.763  0.8111299999999999  1.0000
  S   S44       1.0  0.8911  0.237  0.31113  1.0000
  S   S45       1.0  0.48699999999999993  0.6411  0.4388699999999999  1.0000
  S   S46       1.0  0.012999999999999899  0.35889999999999994  0.93887  1.0000
  S   S47       1.0  0.8911  0.763  0.18887  1.0000
  S   S48       1.0  0.6089  0.237  0.68887  1.0000
  S   S49       1.0  0.48699999999999993  0.8589  0.93887  1.0000
  S   S50       1.0  0.012999999999999899  0.1411  0.4388699999999999  1.0000
  S   S51       1.0  0.8911  0.737  0.68887  1.0000
  S   S52       1.0  0.6089  0.2629999999999999  0.18887  1.0000
  S   S53       1.0  0.012999999999999899  0.8589  0.06112999999999998  1.0000
  S   S54       1.0  0.48699999999999993  0.1411  0.56113  1.0000
  S   S55       1.0  0.6089  0.737  0.31113  1.0000
  S   S56       1.0  0.8911  0.2629999999999999  0.8111299999999999  1.0000
  S   S57       1.0  0.987  0.35889999999999994  0.4388699999999999  1.0000
  S   S58       1.0  0.513  0.6411  0.93887  1.0000
  S   S59       1.0  0.3911  0.237  0.18887  1.0000
  S   S60       1.0  0.10889999999999998  0.763  0.68887  1.0000
  S   S61       1.0  0.513  0.35889999999999994  0.56113  1.0000
  S   S62       1.0  0.987  0.6411  0.06112999999999998  1.0000
  S   S63       1.0  0.10889999999999998  0.237  0.8111299999999999  1.0000
  S   S64       1.0  0.3911  0.763  0.31113  1.0000
  S   S65       1.0  0.6091  0.2717  0.060439999999999994  1.0000
  S   S66       1.0  0.8909  0.7283  0.56044  1.0000
  S   S67       1.0  0.9783  0.3591  0.31044  1.0000
  S   S68       1.0  0.5217  0.6409  0.81044  1.0000
  S   S69       1.0  0.8909  0.2717  0.93956  1.0000
  S   S70       1.0  0.6091  0.7283  0.43956  1.0000
  S   S71       1.0  0.5217  0.3591  0.6895599999999998  1.0000
  S   S72       1.0  0.9783  0.6409  0.18955999999999998  1.0000
  S   S73       1.0  0.10909999999999999  0.7716999999999999  0.56044  1.0000
  S   S74       1.0  0.39089999999999997  0.22829999999999998  0.060439999999999994  1.0000
  S   S75       1.0  0.4783  0.8591  0.81044  1.0000
  S   S76       1.0  0.021700000000000053  0.14090000000000003  0.31044  1.0000
  S   S77       1.0  0.39089999999999997  0.7716999999999999  0.43956  1.0000
  S   S78       1.0  0.10909999999999999  0.22829999999999998  0.93956  1.0000
  S   S79       1.0  0.021700000000000053  0.8591  0.18955999999999998  1.0000
  S   S80       1.0  0.4783  0.14090000000000003  0.6895599999999998  1.0000
  S   S81       1.0  0.39089999999999997  0.7283  0.93956  1.0000
  S   S82       1.0  0.10909999999999999  0.2717  0.43956  1.0000
  S   S83       1.0  0.021700000000000053  0.6409  0.6895599999999998  1.0000
  S   S84       1.0  0.4783  0.3591  0.18955999999999998  1.0000
  S   S85       1.0  0.10909999999999999  0.7283  0.060439999999999994  1.0000
  S   S86       1.0  0.39089999999999997  0.2717  0.56044  1.0000
  S   S87       1.0  0.4783  0.6409  0.31044  1.0000
  S   S88       1.0  0.021700000000000053  0.3591  0.81044  1.0000
  S   S89       1.0  0.8909  0.22829999999999998  0.43956  1.0000
  S   S90       1.0  0.6091  0.7716999999999999  0.93956  1.0000
  S   S91       1.0  0.5217  0.14090000000000003  0.18955999999999998  1.0000
  S   S92       1.0  0.9783  0.8591  0.6895599999999998  1.0000
  S   S93       1.0  0.6091  0.22829999999999998  0.56044  1.0000
  S   S94       1.0  0.8909  0.7716999999999999  0.060439999999999994  1.0000
  S   S95       1.0  0.9783  0.14090000000000003  0.81044  1.0000
  S   S96       1.0  0.5217  0.8591  0.31044  1.0000
  S   S97       1.0  0.6407  0.0426  0.06327  1.0000
  S   S98       1.0  0.8592999999999998  0.9574  0.56327  1.0000
  S   S99       1.0  0.2074  0.39070000000000005  0.31327  1.0000
  S   S100      1.0  0.29259999999999997  0.6093  0.8132699999999999  1.0000
  S   S101      1.0  0.8592999999999998  0.0426  0.93673  1.0000
  S   S102      1.0  0.6407  0.9574  0.43673  1.0000
  S   S103      1.0  0.29259999999999997  0.39070000000000005  0.68673  1.0000
  S   S104      1.0  0.2074  0.6093  0.18673  1.0000
  S   S105      1.0  0.14070000000000005  0.5426  0.56327  1.0000
  S   S106      1.0  0.35929999999999995  0.45740000000000003  0.06327  1.0000
  S   S107      1.0  0.7074  0.8907  0.8132699999999999  1.0000
  S   S108      1.0  0.7925999999999999  0.10929999999999995  0.31327  1.0000
  S   S109      1.0  0.35929999999999995  0.5426  0.43673  1.0000
  S   S110      1.0  0.14070000000000005  0.45740000000000003  0.93673  1.0000
  S   S111      1.0  0.7925999999999999  0.8907  0.18673  1.0000
  S   S112      1.0  0.7074  0.10929999999999995  0.68673  1.0000
  S   S113      1.0  0.35929999999999995  0.9574  0.93673  1.0000
  S   S114      1.0  0.14070000000000005  0.0426  0.43673  1.0000
  S   S115      1.0  0.7925999999999999  0.6093  0.68673  1.0000
  S   S116      1.0  0.7074  0.39070000000000005  0.18673  1.0000
  S   S117      1.0  0.14070000000000005  0.9574  0.06327  1.0000
  S   S118      1.0  0.35929999999999995  0.0426  0.56327  1.0000
  S   S119      1.0  0.7074  0.6093  0.31327  1.0000
  S   S120      1.0  0.7925999999999999  0.39070000000000005  0.8132699999999999  1.0000
  S   S121      1.0  0.8592999999999998  0.45740000000000003  0.43673  1.0000
  S   S122      1.0  0.6407  0.5426  0.93673  1.0000
  S   S123      1.0  0.29259999999999997  0.10929999999999995  0.18673  1.0000
  S   S124      1.0  0.2074  0.8907  0.68673  1.0000
  S   S125      1.0  0.6407  0.45740000000000003  0.56327  1.0000
  S   S126      1.0  0.8592999999999998  0.5426  0.06327  1.0000
  S   S127      1.0  0.2074  0.10929999999999995  0.8132699999999999  1.0000
  S   S128      1.0  0.29259999999999997  0.8907  0.31327  1.0000
  S   S129      1.0  0.7409  0.1766  0.06219999999999999  1.0000
  S   S130      1.0  0.7591  0.8234  0.5622  1.0000
  S   S131      1.0  0.07339999999999999  0.4908999999999999  0.3122  1.0000
  S   S132      1.0  0.4266  0.5091  0.8121999999999999  1.0000
  S   S133      1.0  0.7591  0.1766  0.9378  1.0000
  S   S134      1.0  0.7409  0.8234  0.4378  1.0000
  S   S135      1.0  0.4266  0.4908999999999999  0.6878  1.0000
  S   S136      1.0  0.07339999999999999  0.5091  0.18780000000000002  1.0000
  S   S137      1.0  0.24089999999999986  0.6766  0.5622  1.0000
  S   S138      1.0  0.2591  0.3234  0.06219999999999999  1.0000
  S   S139      1.0  0.5734  0.9909  0.8121999999999999  1.0000
  S   S140      1.0  0.9265999999999999  0.009099999999999997  0.3122  1.0000
  S   S141      1.0  0.2591  0.6766  0.4378  1.0000
  S   S142      1.0  0.24089999999999986  0.3234  0.9378  1.0000
  S   S143      1.0  0.9265999999999999  0.9909  0.18780000000000002  1.0000
  S   S144      1.0  0.5734  0.009099999999999997  0.6878  1.0000
  S   S145      1.0  0.2591  0.8234  0.9378  1.0000
  S   S146      1.0  0.24089999999999986  0.1766  0.4378  1.0000
  S   S147      1.0  0.9265999999999999  0.5091  0.6878  1.0000
  S   S148      1.0  0.5734  0.4908999999999999  0.18780000000000002  1.0000
  S   S149      1.0  0.24089999999999986  0.8234  0.06219999999999999  1.0000
  S   S150      1.0  0.2591  0.1766  0.5622  1.0000
  S   S151      1.0  0.5734  0.5091  0.3122  1.0000
  S   S152      1.0  0.9265999999999999  0.4908999999999999  0.8121999999999999  1.0000
  S   S153      1.0  0.7591  0.3234  0.4378  1.0000
  S   S154      1.0  0.7409  0.6766  0.9378  1.0000
  S   S155      1.0  0.4266  0.009099999999999997  0.18780000000000002  1.0000
  S   S156      1.0  0.07339999999999999  0.9909  0.6878  1.0000
  S   S157      1.0  0.7409  0.3234  0.5622  1.0000
  S   S158      1.0  0.7591  0.6766  0.06219999999999999  1.0000
  S   S159      1.0  0.07339999999999999  0.009099999999999997  0.8121999999999999  1.0000
  S   S160      1.0  0.4266  0.9909  0.3122  1.0000
  S   S161      1.0  0.6251  0.1584  0.9936999999999999  1.0000
  S   S162      1.0  0.8749  0.8416  0.4937  1.0000
  S   S163      1.0  0.09159999999999999  0.3751  0.24369999999999997  1.0000
  S   S164      1.0  0.4084  0.6249  0.7436999999999999  1.0000
  S   S165      1.0  0.8749  0.1584  0.006299999999999998  1.0000
  S   S166      1.0  0.6251  0.8416  0.5063  1.0000
  S   S167      1.0  0.4084  0.3751  0.7563  1.0000
  S   S168      1.0  0.09159999999999999  0.6249  0.2563  1.0000
  S   S169      1.0  0.1251  0.6584  0.4937  1.0000
  S   S170      1.0  0.3749  0.3416  0.9936999999999999  1.0000
  S   S171      1.0  0.5916  0.8750999999999999  0.7436999999999999  1.0000
  S   S172      1.0  0.9084  0.1249  0.24369999999999997  1.0000
  S   S173      1.0  0.3749  0.6584  0.5063  1.0000
  S   S174      1.0  0.1251  0.3416  0.006299999999999998  1.0000
  S   S175      1.0  0.9084  0.8750999999999999  0.2563  1.0000
  S   S176      1.0  0.5916  0.1249  0.7563  1.0000
  S   S177      1.0  0.3749  0.8416  0.006299999999999998  1.0000
  S   S178      1.0  0.1251  0.1584  0.5063  1.0000
  S   S179      1.0  0.9084  0.6249  0.7563  1.0000
  S   S180      1.0  0.5916  0.3751  0.2563  1.0000
  S   S181      1.0  0.1251  0.8416  0.9936999999999999  1.0000
  S   S182      1.0  0.3749  0.1584  0.4937  1.0000
  S   S183      1.0  0.5916  0.6249  0.24369999999999997  1.0000
  S   S184      1.0  0.9084  0.3751  0.7436999999999999  1.0000
  S   S185      1.0  0.8749  0.3416  0.5063  1.0000
  S   S186      1.0  0.6251  0.6584  0.006299999999999998  1.0000
  S   S187      1.0  0.4084  0.1249  0.2563  1.0000
  S   S188      1.0  0.09159999999999999  0.8750999999999999  0.7563  1.0000
  S   S189      1.0  0.6251  0.3416  0.4937  1.0000
  S   S190      1.0  0.8749  0.6584  0.9936999999999999  1.0000
  S   S191      1.0  0.09159999999999999  0.1249  0.7436999999999999  1.0000
  S   S192      1.0  0.4084  0.8750999999999999  0.24369999999999997  1.0000
  S   S193      1.0  0.5326  0.032  0.12439999999999998  1.0000
  S   S194      1.0  0.9673999999999999  0.9679999999999999  0.6244  1.0000
  S   S195      1.0  0.218  0.28259999999999996  0.3743999999999999  1.0000
  S   S196      1.0  0.28200000000000003  0.7174  0.8744  1.0000
  S   S197      1.0  0.9673999999999999  0.032  0.8756  1.0000
  S   S198      1.0  0.5326  0.9679999999999999  0.37560000000000004  1.0000
  S   S199      1.0  0.28200000000000003  0.28259999999999996  0.6256  1.0000
  S   S200      1.0  0.218  0.7174  0.1256  1.0000
  S   S201      1.0  0.03259999999999996  0.532  0.6244  1.0000
  S   S202      1.0  0.46740000000000004  0.46799999999999997  0.12439999999999998  1.0000
  S   S203      1.0  0.718  0.7826  0.8744  1.0000
  S   S204      1.0  0.782  0.2174  0.3743999999999999  1.0000
  S   S205      1.0  0.46740000000000004  0.532  0.37560000000000004  1.0000
  S   S206      1.0  0.03259999999999996  0.46799999999999997  0.8756  1.0000
  S   S207      1.0  0.782  0.7826  0.1256  1.0000
  S   S208      1.0  0.718  0.2174  0.6256  1.0000
  S   S209      1.0  0.46740000000000004  0.9679999999999999  0.8756  1.0000
  S   S210      1.0  0.03259999999999996  0.032  0.37560000000000004  1.0000
  S   S211      1.0  0.782  0.7174  0.6256  1.0000
  S   S212      1.0  0.718  0.28259999999999996  0.1256  1.0000
  S   S213      1.0  0.03259999999999996  0.9679999999999999  0.12439999999999998  1.0000
  S   S214      1.0  0.46740000000000004  0.032  0.6244  1.0000
  S   S215      1.0  0.718  0.7174  0.3743999999999999  1.0000
  S   S216      1.0  0.782  0.28259999999999996  0.8744  1.0000
  S   S217      1.0  0.9673999999999999  0.46799999999999997  0.37560000000000004  1.0000
  S   S218      1.0  0.5326  0.532  0.8756  1.0000
  S   S219      1.0  0.28200000000000003  0.2174  0.1256  1.0000
  S   S220      1.0  0.218  0.7826  0.6256  1.0000
  S   S221      1.0  0.5326  0.46799999999999997  0.6244  1.0000
  S   S222      1.0  0.9673999999999999  0.532  0.12439999999999998  1.0000
  S   S223      1.0  0.218  0.2174  0.8744  1.0000
  S   S224      1.0  0.28200000000000003  0.7826  0.3743999999999999  1.0000
  S   S225      1.0  0.5  0.25  0.9961  1.0000
  S   S226      1.0  0.0  0.75  0.49609999999999993  1.0000
  S   S227      1.0  0.0  0.25  0.2461  1.0000
  S   S228      1.0  0.5  0.75  0.7461  1.0000
  S   S229      1.0  0.0  0.25  0.0038999999999999994  1.0000
  S   S230      1.0  0.5  0.75  0.5039  1.0000
  S   S231      1.0  0.5  0.25  0.7538999999999999  1.0000
  S   S232      1.0  0.0  0.75  0.2539  1.0000
  S   S233      1.0  0.5  0.75  0.0038999999999999994  1.0000
  S   S234      1.0  0.0  0.25  0.5039  1.0000
  S   S235      1.0  0.0  0.75  0.7538999999999999  1.0000
  S   S236      1.0  0.5  0.25  0.2539  1.0000
  S   S237      1.0  0.0  0.75  0.9961  1.0000
  S   S238      1.0  0.5  0.25  0.49609999999999993  1.0000
  S   S239      1.0  0.5  0.75  0.2461  1.0000
  S   S240      1.0  0.0  0.25  0.7461  1.0000
  S   S241      1.0  0.75  0.05029999999999999  0.0  1.0000
  S   S242      1.0  0.75  0.9497  0.49999999999999994  1.0000
  S   S243      1.0  0.1997  0.5  0.24999999999999997  1.0000
  S   S244      1.0  0.3003  0.5  0.7499999999999999  1.0000
  S   S245      1.0  0.25  0.5503  0.49999999999999994  1.0000
  S   S246      1.0  0.25  0.4497  0.0  1.0000
  S   S247      1.0  0.6997  0.0  0.7499999999999999  1.0000
  S   S248      1.0  0.8002999999999999  0.0  0.24999999999999997  1.0000
  S   S249      1.0  0.25  0.9497  0.0  1.0000
  S   S250      1.0  0.25  0.05029999999999999  0.49999999999999994  1.0000
  S   S251      1.0  0.8002999999999999  0.5  0.7499999999999999  1.0000
  S   S252      1.0  0.6997  0.5  0.24999999999999997  1.0000
  S   S253      1.0  0.75  0.4497  0.49999999999999994  1.0000
  S   S254      1.0  0.75  0.5503  0.0  1.0000
  S   S255      1.0  0.3003  0.0  0.24999999999999997  1.0000
  S   S256      1.0  0.1997  0.0  0.7499999999999999  1.0000
