data_image0
_chemical_formula_structural       X4
_chemical_formula_sum              "X4"
_cell_length_a       1
_cell_length_b       1.0009
_cell_length_c       1.0003
_cell_angle_alpha    90
_cell_angle_beta     90.0229
_cell_angle_gamma    89.9943

_space_group_name_H-M_alt    "P 1"
_space_group_IT_number       1

loop_
  _space_group_symop_operation_xyz
  'x, y, z'

loop_
  _atom_site_type_symbol
  _atom_site_label
  _atom_site_symmetry_multiplicity
  _atom_site_fract_x
  _atom_site_fract_y
  _atom_site_fract_z
  _atom_site_occupancy
  X   X1        1.0  -0.06100  0.12349  0.00347  1.0000
  X   X2        1.0  -0.31170  -0.37403  0.25150  1.0000
  X   X3        1.0  0.43650  0.37912  -0.24455  1.0000
  X   X4        1.0  0.18240  -0.11841  -0.49618  1.0000
