data_image0
_chemical_formula_structural       Ba2P4O16
_chemical_formula_sum              "Ba2 P4 O16"
_cell_length_a       8.032
_cell_length_b       7.013
_cell_length_c       7.202
_cell_angle_alpha    109.35999999999999
_cell_angle_beta     104.46
_cell_angle_gamma    96.0

_space_group_name_H-M_alt    "P 1"
_space_group_IT_number       1

loop_
  _space_group_symop_operation_xyz
  'x, y, z'

loop_
  _atom_site_type_symbol
  _atom_site_label
  _atom_site_symmetry_multiplicity
  _atom_site_fract_x
  _atom_site_fract_y
  _atom_site_fract_z
  _atom_site_occupancy
  Ba  Ba1       1.0  0.09233  0.2666  0.29441  1.0000
  Ba  Ba2       1.0  0.90767  0.7334  0.7055899999999998  1.0000
  P   P1        1.0  0.4230000000000001  0.7101  0.8014  1.0000
  P   P2        1.0  0.577  0.28990000000000005  0.19859999999999997  1.0000
  P   P3        1.0  0.09660000000000002  0.7601000000000001  0.2755  1.0000
  P   P4        1.0  0.9034  0.2398999999999999  0.7244999999999999  1.0000
  O   O1        1.0  0.2207  0.6134  0.2002  1.0000
  O   O2        1.0  0.7793  0.3866  0.7998  1.0000
  O   O3        1.0  0.9839999999999999  0.1558  0.8835  1.0000
  O   O4        1.0  0.016  0.8442000000000001  0.11650000000000005  1.0000
  O   O5        1.0  0.01619999999999998  0.3609  0.6498  1.0000
  O   O6        1.0  0.9838  0.6391000000000001  0.35019999999999996  1.0000
  O   O7        1.0  0.3846  0.1679  0.1513  1.0000
  O   O8        1.0  0.6154  0.8321000000000001  0.8486999999999999  1.0000
  O   O9        1.0  0.21539999999999998  0.9599999999999999  0.4631999999999999  1.0000
  O   O10       1.0  0.7846  0.04000000000000015  0.5368  1.0000
  O   O11       1.0  0.29189999999999994  0.8497999999999999  0.7926999999999998  1.0000
  O   O12       1.0  0.7081000000000001  0.1502000000000001  0.20730000000000015  1.0000
  O   O13       1.0  0.42300000000000004  0.6361  0.9775999999999999  1.0000
  O   O14       1.0  0.577  0.3639  0.022399999999999993  1.0000
  O   O15       1.0  0.3904  0.5305  0.5953  1.0000
  O   O16       1.0  0.6095999999999999  0.46950000000000003  0.4046999999999999  1.0000
