data_image0
_chemical_formula_structural       Si96O192
_chemical_formula_sum              "Si96 O192"
_cell_length_a       13.382
_cell_length_b       20.125
_cell_length_c       19.890000000000004
_cell_angle_alpha    90.0
_cell_angle_beta     90.547
_cell_angle_gamma    90.0

_space_group_name_H-M_alt    "P 1"
_space_group_IT_number       1

loop_
  _space_group_symop_operation_xyz
  'x, y, z'

loop_
  _atom_site_type_symbol
  _atom_site_label
  _atom_site_symmetry_multiplicity
  _atom_site_fract_x
  _atom_site_fract_y
  _atom_site_fract_z
  _atom_site_occupancy
  Si  Si1       1.0  0.67779  0.57912  0.0557700000000001  1.0000
  Si  Si2       1.0  0.82221  0.07912000000000007  0.4442299999999999  1.0000
  Si  Si3       1.0  0.32221  0.42088  0.9442299999999998  1.0000
  Si  Si4       1.0  0.1777899999999999  0.92088  0.5557700000000001  1.0000
  Si  Si5       1.0  0.8330100000000001  0.6870299999999998  0.030480000000000063  1.0000
  Si  Si6       1.0  0.6669899999999999  0.18703000000000003  0.46951999999999994  1.0000
  Si  Si7       1.0  0.16698999999999986  0.3129700000000001  0.96952  1.0000
  Si  Si8       1.0  0.33301000000000025  0.81297  0.5304800000000001  1.0000
  Si  Si9       1.0  0.05035999999999997  0.72046  0.06240000000000002  1.0000
  Si  Si10      1.0  0.44964000000000004  0.2204600000000001  0.4376  1.0000
  Si  Si11      1.0  0.94964  0.27954  0.9375999999999999  1.0000
  Si  Si12      1.0  0.55036  0.7795399999999999  0.5624  1.0000
  Si  Si13      1.0  0.03559000000000001  0.87631  0.0626500000000001  1.0000
  Si  Si14      1.0  0.46441  0.37631000000000014  0.4373499999999999  1.0000
  Si  Si15      1.0  0.96441  0.12368999999999995  0.93735  1.0000
  Si  Si16      1.0  0.53559  0.62369  0.5626500000000001  1.0000
  Si  Si17      1.0  0.8226400000000001  0.92393  0.028000000000000025  1.0000
  Si  Si18      1.0  0.6773599999999999  0.42392999999999986  0.4719999999999999  1.0000
  Si  Si19      1.0  0.17735999999999985  0.07606999999999996  0.972  1.0000
  Si  Si20      1.0  0.3226400000000003  0.57607  0.528  1.0000
  Si  Si21      1.0  0.68452  0.8055499999999999  0.05597999999999992  1.0000
  Si  Si22      1.0  0.8154800000000001  0.3055499999999997  0.44402000000000014  1.0000
  Si  Si23      1.0  0.31548  0.1944500000000001  0.9440200000000001  1.0000
  Si  Si24      1.0  0.18452000000000002  0.6944500000000001  0.5559799999999999  1.0000
  Si  Si25      1.0  0.68048  0.57494  0.82847  1.0000
  Si  Si26      1.0  0.81952  0.07494  0.67153  1.0000
  Si  Si27      1.0  0.31952  0.42505999999999994  0.17152999999999996  1.0000
  Si  Si28      1.0  0.18047999999999997  0.92506  0.32847000000000004  1.0000
  Si  Si29      1.0  0.82537  0.6880099999999999  0.8730500000000001  1.0000
  Si  Si30      1.0  0.6746300000000001  0.18800999999999976  0.6269499999999999  1.0000
  Si  Si31      1.0  0.17462999999999995  0.31199000000000005  0.1269499999999999  1.0000
  Si  Si32      1.0  0.32536999999999994  0.8119900000000001  0.3730500000000001  1.0000
  Si  Si33      1.0  0.03573000000000004  0.7267499999999999  0.82432  1.0000
  Si  Si34      1.0  0.46426999999999996  0.22675  0.67568  1.0000
  Si  Si35      1.0  0.96427  0.2732500000000001  0.17567999999999995  1.0000
  Si  Si36      1.0  0.53573  0.7732500000000001  0.32432000000000016  1.0000
  Si  Si37      1.0  0.03390000000000004  0.8809599999999999  0.8240500000000001  1.0000
  Si  Si38      1.0  0.46609999999999996  0.38095999999999997  0.6759499999999999  1.0000
  Si  Si39      1.0  0.9661  0.11904000000000015  0.17594999999999994  1.0000
  Si  Si40      1.0  0.5339  0.61904  0.32405000000000017  1.0000
  Si  Si41      1.0  0.82358  0.92861  0.87048  1.0000
  Si  Si42      1.0  0.67642  0.42860999999999994  0.62952  1.0000
  Si  Si43      1.0  0.17642000000000005  0.07138999999999994  0.12951999999999997  1.0000
  Si  Si44      1.0  0.32358  0.57139  0.37048000000000014  1.0000
  Si  Si45      1.0  0.68555  0.80943  0.8339699999999999  1.0000
  Si  Si46      1.0  0.81445  0.30942999999999987  0.6660300000000001  1.0000
  Si  Si47      1.0  0.31445  0.19057000000000002  0.16603000000000012  1.0000
  Si  Si48      1.0  0.18555000000000013  0.6905699999999999  0.3339699999999999  1.0000
  Si  Si49      1.0  0.83474  0.0724499999999999  0.057150000000000034  1.0000
  Si  Si50      1.0  0.6652600000000001  0.5724499999999999  0.44285  1.0000
  Si  Si51      1.0  0.16525999999999996  0.92755  0.94285  1.0000
  Si  Si52      1.0  0.33474000000000004  0.42755000000000004  0.55715  1.0000
  Si  Si53      1.0  0.68764  0.18795999999999968  0.027369999999999894  1.0000
  Si  Si54      1.0  0.8123600000000001  0.6879599999999996  0.4726300000000001  1.0000
  Si  Si55      1.0  0.31235999999999997  0.8120400000000003  0.9726300000000002  1.0000
  Si  Si56      1.0  0.18764000000000006  0.3120400000000003  0.5273699999999999  1.0000
  Si  Si57      1.0  0.52979  0.7774899999999998  0.93887  1.0000
  Si  Si58      1.0  0.97021  0.2774899999999998  0.56113  1.0000
  Si  Si59      1.0  0.4702100000000001  0.2225100000000001  0.06113000000000002  1.0000
  Si  Si60      1.0  0.029789999999999987  0.7225100000000001  0.4388700000000001  1.0000
  Si  Si61      1.0  0.53351  0.62169  0.9358  1.0000
  Si  Si62      1.0  0.96649  0.12169000000000008  0.5642  1.0000
  Si  Si63      1.0  0.46648999999999996  0.37831000000000004  0.06420000000000003  1.0000
  Si  Si64      1.0  0.03351000000000015  0.87831  0.43579999999999997  1.0000
  Si  Si65      1.0  0.32081  0.57127  0.9729300000000001  1.0000
  Si  Si66      1.0  0.17919000000000002  0.07126999999999994  0.5270699999999999  1.0000
  Si  Si67      1.0  0.6791900000000001  0.42873  0.027069999999999927  1.0000
  Si  Si68      1.0  0.82081  0.9287299999999999  0.4729300000000001  1.0000
  Si  Si69      1.0  0.18197000000000002  0.68751  0.93798  1.0000
  Si  Si70      1.0  0.31803  0.18751000000000004  0.56202  1.0000
  Si  Si71      1.0  0.81803  0.31249000000000005  0.062019999999999964  1.0000
  Si  Si72      1.0  0.68197  0.8124899999999999  0.43798000000000004  1.0000
  Si  Si73      1.0  0.81542  0.07600999999999991  0.82785  1.0000
  Si  Si74      1.0  0.68458  0.5760099999999999  0.67215  1.0000
  Si  Si75      1.0  0.18458  0.92399  0.17215000000000003  1.0000
  Si  Si76      1.0  0.31542000000000003  0.42399000000000003  0.32785  1.0000
  Si  Si77      1.0  0.6704700000000001  0.18785000000000007  0.8692  1.0000
  Si  Si78      1.0  0.8295299999999999  0.68785  0.6308  1.0000
  Si  Si79      1.0  0.3295299999999999  0.8121499999999999  0.13080000000000003  1.0000
  Si  Si80      1.0  0.17047000000000015  0.3121499999999999  0.3692  1.0000
  Si  Si81      1.0  0.54384  0.77317  0.16941000000000006  1.0000
  Si  Si82      1.0  0.9561600000000001  0.2731699999999999  0.33058999999999994  1.0000
  Si  Si83      1.0  0.45616  0.22682999999999998  0.83059  1.0000
  Si  Si84      1.0  0.04383999999999988  0.7268299999999999  0.6694100000000001  1.0000
  Si  Si85      1.0  0.53708  0.61878  0.17046000000000006  1.0000
  Si  Si86      1.0  0.96292  0.11878000000000011  0.32953999999999994  1.0000
  Si  Si87      1.0  0.46292000000000005  0.38122  0.8295399999999998  1.0000
  Si  Si88      1.0  0.03708  0.8812199999999999  0.6704600000000001  1.0000
  Si  Si89      1.0  0.3220400000000001  0.57234  0.13043000000000005  1.0000
  Si  Si90      1.0  0.17795999999999995  0.07234000000000007  0.36956999999999995  1.0000
  Si  Si91      1.0  0.6779599999999999  0.42766  0.86957  1.0000
  Si  Si92      1.0  0.8220400000000002  0.9276599999999999  0.63043  1.0000
  Si  Si93      1.0  0.6994700000000001  0.8065499999999999  0.67985  1.0000
  Si  Si94      1.0  0.8005299999999999  0.3065499999999999  0.8201500000000002  1.0000
  Si  Si95      1.0  0.30052999999999985  0.1934500000000001  0.32015000000000005  1.0000
  Si  Si96      1.0  0.19947000000000026  0.6934500000000001  0.17985000000000007  1.0000
  O   O1        1.0  0.778  0.6229  0.058000000000000045  1.0000
  O   O2        1.0  0.7220000000000001  0.12290000000000001  0.442  1.0000
  O   O3        1.0  0.222  0.37709999999999994  0.942  1.0000
  O   O4        1.0  0.278  0.8770999999999999  0.558  1.0000
  O   O5        1.0  0.9402  0.6896999999999998  0.06519999999999992  1.0000
  O   O6        1.0  0.5598  0.18969999999999973  0.4348  1.0000
  O   O7        1.0  0.059799999999999964  0.31030000000000013  0.9348000000000002  1.0000
  O   O8        1.0  0.4401999999999999  0.8103  0.5651999999999999  1.0000
  O   O9        1.0  0.04390000000000006  0.7981999999999999  0.0492999999999999  1.0000
  O   O10       1.0  0.45609999999999995  0.2982  0.45070000000000005  1.0000
  O   O11       1.0  0.9561  0.2018000000000001  0.9507000000000001  1.0000
  O   O12       1.0  0.5439  0.7018000000000001  0.5492999999999999  1.0000
  O   O13       1.0  0.9210000000000002  0.8979999999999998  0.06669999999999998  1.0000
  O   O14       1.0  0.5789999999999998  0.3979999999999999  0.4333  1.0000
  O   O15       1.0  0.07899999999999985  0.10200000000000009  0.9333000000000001  1.0000
  O   O16       1.0  0.42100000000000026  0.602  0.5667  1.0000
  O   O17       1.0  0.7289  0.8783999999999998  0.04620000000000002  1.0000
  O   O18       1.0  0.7711  0.3783999999999998  0.4538  1.0000
  O   O19       1.0  0.2711  0.12160000000000015  0.9538000000000001  1.0000
  O   O20       1.0  0.22889999999999988  0.6216  0.5462  1.0000
  O   O21       1.0  0.7721  0.7519  0.047700000000000076  1.0000
  O   O22       1.0  0.7279  0.2519  0.4522999999999999  1.0000
  O   O23       1.0  0.2279  0.2481  0.9522999999999998  1.0000
  O   O24       1.0  0.2721  0.7480999999999999  0.5477000000000001  1.0000
  O   O25       1.0  0.7719000000000001  0.6228  0.8464999999999999  1.0000
  O   O26       1.0  0.7280999999999999  0.12280000000000002  0.6535000000000001  1.0000
  O   O27       1.0  0.2280999999999999  0.3772  0.15350000000000008  1.0000
  O   O28       1.0  0.27190000000000003  0.8771999999999999  0.3464999999999998  1.0000
  O   O29       1.0  0.9286  0.6947  0.8344  1.0000
  O   O30       1.0  0.5714  0.1947000000000001  0.6656  1.0000
  O   O31       1.0  0.07140000000000002  0.3053  0.16559999999999997  1.0000
  O   O32       1.0  0.42859999999999987  0.8052999999999999  0.33440000000000003  1.0000
  O   O33       1.0  0.03150000000000008  0.8044999999999999  0.8443999999999999  1.0000
  O   O34       1.0  0.4684999999999999  0.30449999999999994  0.6556000000000001  1.0000
  O   O35       1.0  0.9684999999999999  0.1955000000000001  0.15560000000000007  1.0000
  O   O36       1.0  0.5315000000000001  0.6955000000000001  0.3443999999999998  1.0000
  O   O37       1.0  0.9239  0.9111  0.8314  1.0000
  O   O38       1.0  0.5761  0.41109999999999997  0.6686  1.0000
  O   O39       1.0  0.07609999999999995  0.08889999999999998  0.16859999999999997  1.0000
  O   O40       1.0  0.42390000000000017  0.5889  0.3313999999999999  1.0000
  O   O41       1.0  0.7350000000000002  0.8794999999999998  0.848  1.0000
  O   O42       1.0  0.7649999999999999  0.3794999999999997  0.652  1.0000
  O   O43       1.0  0.2649999999999999  0.12050000000000015  0.15200000000000002  1.0000
  O   O44       1.0  0.2350000000000001  0.6205  0.34799999999999986  1.0000
  O   O45       1.0  0.7592  0.7524999999999998  0.8600000000000001  1.0000
  O   O46       1.0  0.7408  0.2524999999999999  0.6399999999999999  1.0000
  O   O47       1.0  0.24080000000000001  0.24750000000000014  0.1399999999999999  1.0000
  O   O48       1.0  0.2591999999999999  0.7475  0.3600000000000001  1.0000
  O   O49       1.0  0.845  0.6812  0.9512  1.0000
  O   O50       1.0  0.655  0.18120000000000003  0.5488  1.0000
  O   O51       1.0  0.15500000000000003  0.3188  0.048799999999999955  1.0000
  O   O52       1.0  0.34500000000000003  0.8187999999999999  0.4512000000000001  1.0000
  O   O53       1.0  0.8431000000000001  0.9224  0.9489  1.0000
  O   O54       1.0  0.6568999999999999  0.42240000000000005  0.5511  1.0000
  O   O55       1.0  0.15689999999999993  0.0776  0.05110000000000004  1.0000
  O   O56       1.0  0.3431000000000002  0.5776  0.4489000000000001  1.0000
  O   O57       1.0  0.6211  0.5845  0.12559999999999993  1.0000
  O   O58       1.0  0.8789  0.08450000000000002  0.37440000000000007  1.0000
  O   O59       1.0  0.3789  0.4155  0.8744000000000001  1.0000
  O   O60       1.0  0.12109999999999999  0.9155  0.6255999999999999  1.0000
  O   O61       1.0  0.608  0.6051999999999998  0.9963  1.0000
  O   O62       1.0  0.892  0.10519999999999995  0.5037  1.0000
  O   O63       1.0  0.392  0.39480000000000015  0.0037000000000000366  1.0000
  O   O64       1.0  0.1080000000000001  0.8948000000000002  0.4963  1.0000
  O   O65       1.0  0.5817  0.5985  0.8664000000000001  1.0000
  O   O66       1.0  0.9183  0.09850000000000002  0.6335999999999999  1.0000
  O   O67       1.0  0.4183  0.4014999999999999  0.13359999999999994  1.0000
  O   O68       1.0  0.0817000000000001  0.9015  0.36640000000000006  1.0000
  O   O69       1.0  0.6385  0.8013999999999999  0.1302000000000001  1.0000
  O   O70       1.0  0.8615000000000002  0.3013999999999999  0.3697999999999999  1.0000
  O   O71       1.0  0.36150000000000004  0.19860000000000008  0.8697999999999999  1.0000
  O   O72       1.0  0.13850000000000007  0.6986000000000001  0.6302000000000001  1.0000
  O   O73       1.0  0.5979000000000002  0.7926  0.0027999999999999137  1.0000
  O   O74       1.0  0.9020999999999999  0.29259999999999997  0.49720000000000003  1.0000
  O   O75       1.0  0.4020999999999999  0.2074  0.9972000000000001  1.0000
  O   O76       1.0  0.0979000000000001  0.7074  0.5027999999999999  1.0000
  O   O77       1.0  0.5822  0.8042999999999998  0.8726  1.0000
  O   O78       1.0  0.9178  0.30429999999999996  0.6274  1.0000
  O   O79       1.0  0.41779999999999995  0.19570000000000007  0.12739999999999996  1.0000
  O   O80       1.0  0.08220000000000005  0.6957  0.37260000000000004  1.0000
  O   O81       1.0  0.7956  0.9974  0.05119999999999991  1.0000
  O   O82       1.0  0.7044000000000001  0.4973999999999998  0.4488000000000001  1.0000
  O   O83       1.0  0.20440000000000005  0.0026000000000000467  0.9488000000000001  1.0000
  O   O84       1.0  0.29559999999999986  0.5026  0.5511999999999999  1.0000
  O   O85       1.0  0.7891  0.0021999999999999797  0.8524999999999999  1.0000
  O   O86       1.0  0.7109  0.5021999999999999  0.6475000000000001  1.0000
  O   O87       1.0  0.21089999999999998  0.9978  0.14750000000000008  1.0000
  O   O88       1.0  0.2890999999999999  0.4978  0.35250000000000004  1.0000
  O   O89       1.0  0.6573  0.5762999999999999  0.7498  1.0000
  O   O90       1.0  0.8427  0.07629999999999981  0.7502  1.0000
  O   O91       1.0  0.34270000000000006  0.4237  0.2502  1.0000
  O   O92       1.0  0.1573  0.9237  0.24980000000000002  1.0000
  O   O93       1.0  0.6636  0.8017  0.7553  1.0000
  O   O94       1.0  0.8364  0.3016999999999998  0.7447  1.0000
  O   O95       1.0  0.3364000000000001  0.1983  0.2447  1.0000
  O   O96       1.0  0.1636  0.6983  0.2553000000000001  1.0000
  O   O97       1.0  0.06689999999999996  0.7181999999999998  0.7473  1.0000
  O   O98       1.0  0.43310000000000004  0.21819999999999995  0.7527  1.0000
  O   O99       1.0  0.9331  0.28180000000000016  0.25270000000000004  1.0000
  O   O100      1.0  0.5669  0.7818000000000002  0.24730000000000008  1.0000
  O   O101      1.0  0.06810000000000005  0.8895999999999998  0.7481  1.0000
  O   O102      1.0  0.43189999999999995  0.3895999999999997  0.7519  1.0000
  O   O103      1.0  0.9319  0.11040000000000015  0.2519  1.0000
  O   O104      1.0  0.5681  0.6104000000000002  0.24810000000000001  1.0000
  O   O105      1.0  0.7415  0.1208  0.05160000000000009  1.0000
  O   O106      1.0  0.7585  0.6208  0.44839999999999997  1.0000
  O   O107      1.0  0.25849999999999995  0.8791999999999999  0.9483999999999999  1.0000
  O   O108      1.0  0.24150000000000005  0.3791999999999999  0.5516000000000001  1.0000
  O   O109      1.0  0.42490000000000006  0.8136999999999999  0.9467  1.0000
  O   O110      1.0  0.07509999999999994  0.3136999999999998  0.5533  1.0000
  O   O111      1.0  0.5751  0.1863000000000001  0.053300000000000014  1.0000
  O   O112      1.0  0.9249  0.6863000000000001  0.4466999999999998  1.0000
  O   O113      1.0  0.511  0.6989999999999997  0.9334  1.0000
  O   O114      1.0  0.989  0.19899999999999982  0.5666  1.0000
  O   O115      1.0  0.489  0.30100000000000016  0.06659999999999999  1.0000
  O   O116      1.0  0.01100000000000012  0.801  0.43339999999999995  1.0000
  O   O117      1.0  0.4316  0.5831999999999999  0.946  1.0000
  O   O118      1.0  0.06840000000000002  0.08319999999999993  0.554  1.0000
  O   O119      1.0  0.5684  0.41680000000000006  0.05400000000000005  1.0000
  O   O120      1.0  0.9316  0.9168000000000001  0.44599999999999995  1.0000
  O   O121      1.0  0.24460000000000004  0.6198999999999999  0.9361  1.0000
  O   O122      1.0  0.25539999999999996  0.1198999999999999  0.5639  1.0000
  O   O123      1.0  0.7554  0.38010000000000005  0.06389999999999996  1.0000
  O   O124      1.0  0.7446  0.8801000000000001  0.4361000000000001  1.0000
  O   O125      1.0  0.7450000000000002  0.25039999999999996  0.0592999999999999  1.0000
  O   O126      1.0  0.7549999999999999  0.7503999999999998  0.4407000000000001  1.0000
  O   O127      1.0  0.2549999999999999  0.7496  0.9407000000000001  1.0000
  O   O128      1.0  0.2450000000000001  0.24960000000000004  0.5592999999999999  1.0000
  O   O129      1.0  0.7203  0.12149999999999994  0.8414  1.0000
  O   O130      1.0  0.7797  0.6214999999999999  0.6586  1.0000
  O   O131      1.0  0.27969999999999995  0.8785  0.15859999999999996  1.0000
  O   O132      1.0  0.22029999999999994  0.37850000000000006  0.34140000000000015  1.0000
  O   O133      1.0  0.4454  0.814  0.1462000000000001  1.0000
  O   O134      1.0  0.05459999999999999  0.31400000000000006  0.3537999999999999  1.0000
  O   O135      1.0  0.5546  0.18600000000000005  0.8537999999999999  1.0000
  O   O136      1.0  0.9454  0.686  0.6462000000000001  1.0000
  O   O137      1.0  0.526  0.6964  0.1519999999999999  1.0000
  O   O138      1.0  0.974  0.19640000000000013  0.3480000000000001  1.0000
  O   O139      1.0  0.47400000000000003  0.3036  0.8480000000000002  1.0000
  O   O140      1.0  0.026000000000000023  0.8036  0.6519999999999999  1.0000
  O   O141      1.0  0.4324000000000001  0.5833  0.15670000000000006  1.0000
  O   O142      1.0  0.06759999999999994  0.08329999999999992  0.34329999999999994  1.0000
  O   O143      1.0  0.5675999999999999  0.4166999999999999  0.8432999999999998  1.0000
  O   O144      1.0  0.9324000000000002  0.9166999999999998  0.6567000000000001  1.0000
  O   O145      1.0  0.7476  0.8778  0.6665  1.0000
  O   O146      1.0  0.7524  0.37780000000000014  0.8335  1.0000
  O   O147      1.0  0.25239999999999996  0.12219999999999996  0.3335  1.0000
  O   O148      1.0  0.24760000000000004  0.6222  0.1665000000000001  1.0000
  O   O149      1.0  0.782  0.7509  0.6684  1.0000
  O   O150      1.0  0.7180000000000001  0.2509000000000001  0.8316  1.0000
  O   O151      1.0  0.218  0.2491  0.3316  1.0000
  O   O152      1.0  0.28200000000000003  0.7490999999999999  0.1684000000000001  1.0000
  O   O153      1.0  0.6895  0.1944999999999999  0.9478000000000001  1.0000
  O   O154      1.0  0.8105000000000001  0.6944999999999998  0.5521999999999999  1.0000
  O   O155      1.0  0.3105  0.8055000000000001  0.05219999999999991  1.0000
  O   O156      1.0  0.1895  0.3055000000000001  0.4478  1.0000
  O   O157      1.0  0.3186  0.5849  0.0512999999999999  1.0000
  O   O158      1.0  0.1814  0.08489999999999996  0.4487000000000001  1.0000
  O   O159      1.0  0.6814000000000001  0.4151  0.9487000000000002  1.0000
  O   O160      1.0  0.8186  0.9150999999999999  0.5512999999999999  1.0000
  O   O161      1.0  0.111  0.9183  0.8717  1.0000
  O   O162      1.0  0.389  0.4182999999999999  0.6283  1.0000
  O   O163      1.0  0.889  0.08169999999999998  0.12829999999999997  1.0000
  O   O164      1.0  0.611  0.5817  0.37170000000000014  1.0000
  O   O165      1.0  0.08679999999999999  0.9138999999999999  0.0013000000000000789  1.0000
  O   O166      1.0  0.4132  0.4138999999999999  0.4986999999999999  1.0000
  O   O167      1.0  0.9132  0.08610000000000007  0.9986999999999999  1.0000
  O   O168      1.0  0.5868  0.5861000000000001  0.5013000000000001  1.0000
  O   O169      1.0  0.08899999999999997  0.8956  0.1319999999999999  1.0000
  O   O170      1.0  0.41100000000000003  0.39559999999999995  0.3680000000000001  1.0000
  O   O171      1.0  0.9110000000000001  0.10440000000000003  0.8680000000000001  1.0000
  O   O172      1.0  0.589  0.6044  0.6319999999999999  1.0000
  O   O173      1.0  0.1158999999999999  0.6906  0.8710000000000001  1.0000
  O   O174      1.0  0.3841000000000001  0.19059999999999988  0.6289999999999999  1.0000
  O   O175      1.0  0.8841000000000002  0.3094  0.1289999999999999  1.0000
  O   O176      1.0  0.6158999999999999  0.8094  0.371  1.0000
  O   O177      1.0  0.11109999999999998  0.6871  0.0022999999999999687  1.0000
  O   O178      1.0  0.3889  0.18710000000000004  0.4977000000000001  1.0000
  O   O179      1.0  0.8889  0.31289999999999996  0.9977  1.0000
  O   O180      1.0  0.6111  0.8129  0.5023  1.0000
  O   O181      1.0  0.10499999999999998  0.7053  0.1318999999999999  1.0000
  O   O182      1.0  0.395  0.20530000000000004  0.3681000000000001  1.0000
  O   O183      1.0  0.895  0.29469999999999996  0.8681000000000001  1.0000
  O   O184      1.0  0.605  0.7946999999999999  0.6318999999999999  1.0000
  O   O185      1.0  0.7099  0.5038  0.04390000000000005  1.0000
  O   O186      1.0  0.7901  0.003800000000000025  0.4560999999999999  1.0000
  O   O187      1.0  0.2901  0.4962  0.9561  1.0000
  O   O188      1.0  0.20989999999999998  0.9961999999999999  0.5439  1.0000
  O   O189      1.0  0.7110000000000001  0.502  0.8519000000000001  1.0000
  O   O190      1.0  0.7889999999999999  0.0020000000000000018  0.6480999999999999  1.0000
  O   O191      1.0  0.2889999999999999  0.49799999999999994  0.1480999999999999  1.0000
  O   O192      1.0  0.2110000000000001  0.9979999999999999  0.3519000000000001  1.0000
