data_image0
_chemical_formula_structural       Al6H18
_chemical_formula_sum              "Al6 H18"
_cell_length_a       5.38062
_cell_length_b       7.35553
_cell_length_c       5.77509
_cell_angle_alpha    90.0
_cell_angle_beta     90.0
_cell_angle_gamma    90.0

_space_group_name_H-M_alt    "P 1"
_space_group_IT_number       1

loop_
  _space_group_symop_operation_xyz
  'x, y, z'

loop_
  _atom_site_type_symbol
  _atom_site_label
  _atom_site_symmetry_multiplicity
  _atom_site_fract_x
  _atom_site_fract_y
  _atom_site_fract_z
  _atom_site_occupancy
  Al  Al1       1.0  0.0  0.0  0.5  1.0000
  Al  Al2       1.0  0.5  0.49999999999999994  0.0  1.0000
  Al  Al3       1.0  0.78742  0.08486  0.0  1.0000
  Al  Al4       1.0  0.71258  0.5848599999999999  0.5  1.0000
  Al  Al5       1.0  0.28742  0.41514  0.5  1.0000
  Al  Al6       1.0  0.21258000000000002  0.9151399999999998  0.0  1.0000
  H   H1        1.0  0.0  0.4999999999999999  0.5  1.0000
  H   H2        1.0  0.5  0.0  0.0  1.0000
  H   H3        1.0  0.7622  0.07769999999999999  0.3088000000000001  1.0000
  H   H4        1.0  0.7378  0.5776999999999999  0.8088000000000001  1.0000
  H   H5        1.0  0.2622  0.42229999999999995  0.8088000000000001  1.0000
  H   H6        1.0  0.2378  0.9223  0.3088000000000001  1.0000
  H   H7        1.0  0.2378  0.9223  0.6912  1.0000
  H   H8        1.0  0.2622  0.42229999999999995  0.19119999999999995  1.0000
  H   H9        1.0  0.7378  0.5776999999999999  0.19119999999999995  1.0000
  H   H10       1.0  0.7622  0.07769999999999999  0.6912  1.0000
  H   H11       1.0  0.09359999999999999  0.1302  0.0  1.0000
  H   H12       1.0  0.4064  0.6302  0.5  1.0000
  H   H13       1.0  0.5936  0.36979999999999996  0.5  1.0000
  H   H14       1.0  0.9063999999999999  0.8697999999999999  0.0  1.0000
  H   H15       1.0  0.625  0.2774999999999999  0.0  1.0000
  H   H16       1.0  0.875  0.7775  0.5  1.0000
  H   H17       1.0  0.125  0.2225  0.5  1.0000
  H   H18       1.0  0.375  0.7224999999999999  0.0  1.0000
