data_image0
_chemical_formula_structural       Ag4O6C2
_chemical_formula_sum              "Ag4 O6 C2"
_cell_length_a       4.852
_cell_length_b       9.553
_cell_length_c       3.255
_cell_angle_alpha    90.0
_cell_angle_beta     91.96
_cell_angle_gamma    90.0

_space_group_name_H-M_alt    "P 1"
_space_group_IT_number       1

loop_
  _space_group_symop_operation_xyz
  'x, y, z'

loop_
  _atom_site_type_symbol
  _atom_site_label
  _atom_site_symmetry_multiplicity
  _atom_site_fract_x
  _atom_site_fract_y
  _atom_site_fract_z
  _atom_site_occupancy
  Ag  Ag1       1.0  0.2109  0.0781  0.21909999999999993  1.0000
  Ag  Ag2       1.0  0.7890999999999999  0.5781000000000001  0.7808999999999999  1.0000
  Ag  Ag3       1.0  0.7890999999999999  0.9218999999999999  0.7808999999999999  1.0000
  Ag  Ag4       1.0  0.2109  0.4219  0.21909999999999993  1.0000
  O   O1        1.0  0.9819999999999999  0.25  0.8889999999999998  1.0000
  O   O2        1.0  0.018  0.75  0.11100000000000008  1.0000
  O   O3        1.0  0.39  0.6342  0.33399999999999996  1.0000
  O   O4        1.0  0.6099999999999999  0.13419999999999987  0.6659999999999999  1.0000
  O   O5        1.0  0.6099999999999999  0.3658  0.6659999999999999  1.0000
  O   O6        1.0  0.39  0.8658  0.33399999999999996  1.0000
  C   C1        1.0  0.26999999999999996  0.75  0.26099999999999995  1.0000
  C   C2        1.0  0.7299999999999999  0.25  0.739  1.0000
