data_image0
_chemical_formula_structural       La8Ti8O28
_chemical_formula_sum              "La8 Ti8 O28"
_cell_length_a       7.8
_cell_length_b       13.011
_cell_length_c       5.546
_cell_angle_alpha    90.0
_cell_angle_beta     90.0
_cell_angle_gamma    98.59999999999998

_space_group_name_H-M_alt    "P 1"
_space_group_IT_number       1

loop_
  _space_group_symop_operation_xyz
  'x, y, z'

loop_
  _atom_site_type_symbol
  _atom_site_label
  _atom_site_symmetry_multiplicity
  _atom_site_fract_x
  _atom_site_fract_y
  _atom_site_fract_z
  _atom_site_occupancy
  La  La1       1.0  0.2789000000000001  0.1138  0.25  1.0000
  La  La2       1.0  0.7211000000000001  0.8862000000000001  0.75  1.0000
  La  La3       1.0  0.7741000000000002  0.09930000000000003  0.2543  1.0000
  La  La4       1.0  0.22589999999999993  0.9007000000000001  0.7543  1.0000
  La  La5       1.0  0.3502000000000001  0.3909  0.8026  1.0000
  La  La6       1.0  0.6497999999999999  0.6091  0.3026  1.0000
  La  La7       1.0  0.8525  0.4164  0.8412999999999999  1.0000
  La  La8       1.0  0.14749999999999996  0.5836  0.34129999999999994  1.0000
  Ti  Ti1       1.0  0.032000000000000015  0.11910000000000003  0.7629999999999999  1.0000
  Ti  Ti2       1.0  0.9680000000000001  0.8809000000000001  0.2629999999999999  1.0000
  Ti  Ti3       1.0  0.5271  0.12  0.7598  1.0000
  Ti  Ti4       1.0  0.47290000000000004  0.88  0.25980000000000003  1.0000
  Ti  Ti5       1.0  0.078  0.3228  0.2946  1.0000
  Ti  Ti6       1.0  0.9220000000000002  0.6772000000000001  0.7946  1.0000
  Ti  Ti7       1.0  0.5833  0.32630000000000003  0.2975  1.0000
  Ti  Ti8       1.0  0.41670000000000007  0.6737000000000001  0.7974999999999999  1.0000
  O   O1        1.0  0.7760000000000002  0.109  0.7989999999999999  1.0000
  O   O2        1.0  0.2239999999999999  0.891  0.29899999999999993  1.0000
  O   O3        1.0  0.275  0.09000000000000001  0.698  1.0000
  O   O4        1.0  0.725  0.91  0.19799999999999995  1.0000
  O   O5        1.0  0.03000000000000001  0.016000000000000004  0.023999999999999997  1.0000
  O   O6        1.0  0.9700000000000001  0.9840000000000001  0.524  1.0000
  O   O7        1.0  0.4790000000000001  0.020000000000000007  0.025999999999999995  1.0000
  O   O8        1.0  0.5209999999999999  0.9800000000000001  0.526  1.0000
  O   O9        1.0  0.09800000000000003  0.22600000000000006  0.969  1.0000
  O   O10       1.0  0.902  0.774  0.4689999999999998  1.0000
  O   O11       1.0  0.5170000000000002  0.22900000000000004  0.963  1.0000
  O   O12       1.0  0.483  0.771  0.4630000000000001  1.0000
  O   O13       1.0  0.03300000000000003  0.18700000000000006  0.46  1.0000
  O   O14       1.0  0.9670000000000001  0.813  0.96  1.0000
  O   O15       1.0  0.5590000000000002  0.18900000000000006  0.455  1.0000
  O   O16       1.0  0.4409999999999999  0.8109999999999999  0.9550000000000001  1.0000
  O   O17       1.0  0.08900000000000001  0.40900000000000003  0.554  1.0000
  O   O18       1.0  0.9110000000000001  0.5910000000000001  0.054000000000000055  1.0000
  O   O19       1.0  0.613  0.39800000000000013  0.569  1.0000
  O   O20       1.0  0.3870000000000001  0.602  0.06899999999999995  1.0000
  O   O21       1.0  0.12100000000000005  0.4320000000000001  0.078  1.0000
  O   O22       1.0  0.8790000000000001  0.568  0.578  1.0000
  O   O23       1.0  0.5990000000000002  0.44  0.089  1.0000
  O   O24       1.0  0.401  0.5600000000000002  0.589  1.0000
  O   O25       1.0  0.3270000000000001  0.312  0.323  1.0000
  O   O26       1.0  0.673  0.6880000000000001  0.8230000000000001  1.0000
  O   O27       1.0  0.8250000000000002  0.30000000000000004  0.221  1.0000
  O   O28       1.0  0.175  0.7000000000000001  0.721  1.0000
