data_image0
_chemical_formula_structural       Cs6Te12O36
_chemical_formula_sum              "Cs6 Te12 O36"
_cell_length_a       7.2787
_cell_length_b       7.2787
_cell_length_c       18.2996
_cell_angle_alpha    90.0
_cell_angle_beta     90.0
_cell_angle_gamma    119.99999999999999

_space_group_name_H-M_alt    "P 1"
_space_group_IT_number       1

loop_
  _space_group_symop_operation_xyz
  'x, y, z'

loop_
  _atom_site_type_symbol
  _atom_site_label
  _atom_site_symmetry_multiplicity
  _atom_site_fract_x
  _atom_site_fract_y
  _atom_site_fract_z
  _atom_site_occupancy
  Cs  Cs1       1.0  0.0  0.0  0.12199999999999998  1.0000
  Cs  Cs2       1.0  0.0  0.0  0.878  1.0000
  Cs  Cs3       1.0  0.6666666666666666  0.3333333333333333  0.45533333333333326  1.0000
  Cs  Cs4       1.0  0.6666666666666666  0.3333333333333333  0.2113333333333333  1.0000
  Cs  Cs5       1.0  0.3333333333333333  0.6666666666666666  0.7886666666666666  1.0000
  Cs  Cs6       1.0  0.3333333333333333  0.6666666666666666  0.5446666666666665  1.0000
  Te  Te1       1.0  0.0  0.0  0.4999999999999999  1.0000
  Te  Te2       1.0  0.6666666666666666  0.3333333333333333  0.8333333333333331  1.0000
  Te  Te3       1.0  0.3333333333333333  0.6666666666666666  0.16666666666666652  1.0000
  Te  Te4       1.0  0.4999999999999999  0.0  0.0  1.0000
  Te  Te5       1.0  2.750504443314495e-18  0.49999999999999994  0.0  1.0000
  Te  Te6       1.0  0.49999999999999994  0.5  0.0  1.0000
  Te  Te7       1.0  0.1666666666666665  0.3333333333333333  0.3333333333333333  1.0000
  Te  Te8       1.0  0.6666666666666666  0.8333333333333333  0.3333333333333333  1.0000
  Te  Te9       1.0  0.16666666666666669  0.8333333333333334  0.3333333333333333  1.0000
  Te  Te10      1.0  0.8333333333333331  0.6666666666666666  0.6666666666666666  1.0000
  Te  Te11      1.0  0.3333333333333333  0.16666666666666652  0.6666666666666666  1.0000
  Te  Te12      1.0  0.8333333333333334  0.1666666666666667  0.6666666666666666  1.0000
  O   O1        1.0  0.20379999999999995  0.7962  0.9825  1.0000
  O   O2        1.0  0.20379999999999993  0.4075999999999999  0.9825  1.0000
  O   O3        1.0  0.5923999999999999  0.7962  0.9825  1.0000
  O   O4        1.0  0.7961999999999998  0.20379999999999995  0.017499999999999957  1.0000
  O   O5        1.0  0.4075999999999999  0.20379999999999995  0.017499999999999957  1.0000
  O   O6        1.0  0.7961999999999999  0.5924  0.017499999999999957  1.0000
  O   O7        1.0  0.8704666666666665  0.12953333333333328  0.3158333333333334  1.0000
  O   O8        1.0  0.8704666666666665  0.7409333333333332  0.3158333333333334  1.0000
  O   O9        1.0  0.25906666666666656  0.12953333333333333  0.3158333333333334  1.0000
  O   O10       1.0  0.46286666666666676  0.5371333333333332  0.3508333333333333  1.0000
  O   O11       1.0  0.07426666666666658  0.5371333333333332  0.3508333333333333  1.0000
  O   O12       1.0  0.4628666666666666  0.9257333333333333  0.3508333333333333  1.0000
  O   O13       1.0  0.5371333333333331  0.4628666666666667  0.6491666666666667  1.0000
  O   O14       1.0  0.5371333333333331  0.07426666666666659  0.6491666666666667  1.0000
  O   O15       1.0  0.9257333333333332  0.46286666666666665  0.6491666666666667  1.0000
  O   O16       1.0  0.12953333333333325  0.8704666666666666  0.6841666666666665  1.0000
  O   O17       1.0  0.7409333333333331  0.8704666666666666  0.6841666666666665  1.0000
  O   O18       1.0  0.1295333333333333  0.25906666666666656  0.6841666666666665  1.0000
  O   O19       1.0  0.1379999999999999  0.862  0.4345999999999999  1.0000
  O   O20       1.0  0.13799999999999998  0.276  0.4345999999999999  1.0000
  O   O21       1.0  0.7239999999999999  0.8620000000000001  0.4345999999999999  1.0000
  O   O22       1.0  0.862  0.13799999999999996  0.5654  1.0000
  O   O23       1.0  0.27599999999999997  0.138  0.5654  1.0000
  O   O24       1.0  0.8620000000000001  0.724  0.5654  1.0000
  O   O25       1.0  0.8046666666666665  0.19533333333333336  0.7679333333333332  1.0000
  O   O26       1.0  0.8046666666666665  0.6093333333333333  0.7679333333333332  1.0000
  O   O27       1.0  0.39066666666666666  0.19533333333333336  0.7679333333333332  1.0000
  O   O28       1.0  0.5286666666666666  0.4713333333333332  0.8987333333333333  1.0000
  O   O29       1.0  0.9426666666666665  0.4713333333333334  0.8987333333333333  1.0000
  O   O30       1.0  0.5286666666666666  0.057333333333333236  0.8987333333333333  1.0000
  O   O31       1.0  0.4713333333333332  0.5286666666666666  0.1012666666666666  1.0000
  O   O32       1.0  0.4713333333333333  0.9426666666666667  0.1012666666666666  1.0000
  O   O33       1.0  0.057333333333333236  0.5286666666666666  0.1012666666666666  1.0000
  O   O34       1.0  0.19533333333333328  0.8046666666666665  0.23206666666666667  1.0000
  O   O35       1.0  0.6093333333333333  0.8046666666666665  0.23206666666666667  1.0000
  O   O36       1.0  0.19533333333333333  0.3906666666666667  0.23206666666666667  1.0000
