data_image0
_chemical_formula_structural       Mg6H6N6H6Mg6N6
_chemical_formula_sum              "Mg12 H12 N12"
_cell_length_a       11.57961
_cell_length_b       11.579609999999999
_cell_length_c       3.6811
_cell_angle_alpha    90.0
_cell_angle_beta     90.0
_cell_angle_gamma    119.99999999999999

_space_group_name_H-M_alt    "P 1"
_space_group_IT_number       1

loop_
  _space_group_symop_operation_xyz
  'x, y, z'

loop_
  _atom_site_type_symbol
  _atom_site_label
  _atom_site_symmetry_multiplicity
  _atom_site_fract_x
  _atom_site_fract_y
  _atom_site_fract_z
  _atom_site_occupancy
  Mg  Mg1       1.0  0.584  0.8677  0.0  1.0000
  Mg  Mg2       1.0  0.7162999999999997  0.5839999999999999  0.0  1.0000
  Mg  Mg3       1.0  0.13229999999999992  0.7162999999999998  0.0  1.0000
  Mg  Mg4       1.0  0.41600000000000004  0.13229999999999997  0.0  1.0000
  Mg  Mg5       1.0  0.28370000000000006  0.41600000000000004  0.0  1.0000
  Mg  Mg6       1.0  0.8676999999999998  0.2837  0.0  1.0000
  H   H1        1.0  0.4273  0.7666  0.5  1.0000
  H   H2        1.0  0.6607000000000001  0.4273  0.5  1.0000
  H   H3        1.0  0.23340000000000005  0.6607000000000001  0.5  1.0000
  H   H4        1.0  0.5727  0.23340000000000002  0.5  1.0000
  H   H5        1.0  0.33929999999999993  0.5727  0.5  1.0000
  H   H6        1.0  0.7666  0.33929999999999993  0.5  1.0000
  N   N1        1.0  0.4954  0.8633  0.5  1.0000
  N   N2        1.0  0.6321  0.49539999999999995  0.5  1.0000
  N   N3        1.0  0.1367  0.6321  0.5  1.0000
  N   N4        1.0  0.5045999999999999  0.13670000000000004  0.5  1.0000
  N   N5        1.0  0.36789999999999995  0.5045999999999999  0.5  1.0000
  N   N6        1.0  0.8633  0.3678999999999999  0.5  1.0000
  H   H7        1.0  0.9402  0.7449999999999998  0.0  1.0000
  H   H8        1.0  0.19520000000000018  0.9402  0.0  1.0000
  H   H9        1.0  0.2550000000000001  0.19520000000000012  0.0  1.0000
  H   H10       1.0  0.05979999999999997  0.2550000000000001  0.0  1.0000
  H   H11       1.0  0.8048  0.059799999999999964  0.0  1.0000
  H   H12       1.0  0.745  0.8047999999999997  0.0  1.0000
  Mg  Mg7       1.0  0.9285  0.5721  0.5  1.0000
  Mg  Mg8       1.0  0.3564  0.9285  0.5  1.0000
  Mg  Mg9       1.0  0.42789999999999995  0.3563999999999999  0.5  1.0000
  Mg  Mg10      1.0  0.07150000000000001  0.42789999999999995  0.5  1.0000
  Mg  Mg11      1.0  0.6436000000000001  0.07150000000000001  0.5  1.0000
  Mg  Mg12      1.0  0.5720999999999999  0.6436  0.5  1.0000
  N   N7        1.0  0.6517  0.7279  0.0  1.0000
  N   N8        1.0  0.9238  0.6517  0.0  1.0000
  N   N9        1.0  0.27209999999999995  0.9237999999999998  0.0  1.0000
  N   N10       1.0  0.34830000000000005  0.2721  0.0  1.0000
  N   N11       1.0  0.07620000000000006  0.34830000000000005  0.0  1.0000
  N   N12       1.0  0.7279  0.07620000000000005  0.0  1.0000
