data_image0
_chemical_formula_structural       Ag8Cu8O12
_chemical_formula_sum              "Ag8 Cu8 O12"
_cell_length_a       5.8862
_cell_length_b       5.8862
_cell_length_c       10.6892
_cell_angle_alpha    90.0
_cell_angle_beta     90.0
_cell_angle_gamma    90.0

_space_group_name_H-M_alt    "P 1"
_space_group_IT_number       1

loop_
  _space_group_symop_operation_xyz
  'x, y, z'

loop_
  _atom_site_type_symbol
  _atom_site_label
  _atom_site_symmetry_multiplicity
  _atom_site_fract_x
  _atom_site_fract_y
  _atom_site_fract_z
  _atom_site_occupancy
  Ag  Ag1       1.0  0.0  0.0  0.0  1.0000
  Ag  Ag2       1.0  0.5  0.0  0.5  1.0000
  Ag  Ag3       1.0  0.25  0.25  0.75  1.0000
  Ag  Ag4       1.0  0.25  0.75  0.25  1.0000
  Ag  Ag5       1.0  0.75  0.25  0.75  1.0000
  Ag  Ag6       1.0  0.75  0.75  0.25  1.0000
  Ag  Ag7       1.0  0.5  0.5  0.5  1.0000
  Ag  Ag8       1.0  0.0  0.5  0.0  1.0000
  Cu  Cu1       1.0  0.0  0.0  0.5  1.0000
  Cu  Cu2       1.0  0.5  0.0  0.0  1.0000
  Cu  Cu3       1.0  0.25  0.25  0.25  1.0000
  Cu  Cu4       1.0  0.25  0.75  0.75  1.0000
  Cu  Cu5       1.0  0.75  0.25  0.25  1.0000
  Cu  Cu6       1.0  0.75  0.75  0.75  1.0000
  Cu  Cu7       1.0  0.5  0.5  0.0  1.0000
  Cu  Cu8       1.0  0.0  0.5  0.5  1.0000
  O   O1        1.0  0.0  0.75  0.6339999999999999  1.0000
  O   O2        1.0  0.0  0.25  0.3660000000000001  1.0000
  O   O3        1.0  0.5  0.75  0.8660000000000002  1.0000
  O   O4        1.0  0.5  0.25  0.1339999999999999  1.0000
  O   O5        1.0  0.0  0.25  0.3839999999999999  1.0000
  O   O6        1.0  0.0  0.75  0.6160000000000002  1.0000
  O   O7        1.0  0.5  0.25  0.11600000000000012  1.0000
  O   O8        1.0  0.5  0.75  0.8839999999999999  1.0000
  O   O9        1.0  0.0  0.75  0.625  1.0000
  O   O10       1.0  0.0  0.25  0.375  1.0000
  O   O11       1.0  0.5  0.75  0.875  1.0000
  O   O12       1.0  0.5  0.25  0.125  1.0000
