data_image0
_chemical_formula_structural       U2Rb6Na2C6O26
_chemical_formula_sum              "U2 Rb6 Na2 C6 O26"
_cell_length_a       9.4316
_cell_length_b       9.4316
_cell_length_c       8.3595
_cell_angle_alpha    90.0
_cell_angle_beta     90.0
_cell_angle_gamma    119.99999999999999

_space_group_name_H-M_alt    "P 1"
_space_group_IT_number       1

loop_
  _space_group_symop_operation_xyz
  'x, y, z'

loop_
  _atom_site_type_symbol
  _atom_site_label
  _atom_site_symmetry_multiplicity
  _atom_site_fract_x
  _atom_site_fract_y
  _atom_site_fract_z
  _atom_site_occupancy
  U   U1        1.0  0.6667  0.3333  0.75  1.0000
  U   U2        1.0  0.33329999999999993  0.6666999999999998  0.25  1.0000
  Rb  Rb1       1.0  0.2764  0.0  0.0  1.0000
  Rb  Rb2       1.0  5.679151208518795e-18  0.2764  0.0  1.0000
  Rb  Rb3       1.0  0.7236  0.7236  0.0  1.0000
  Rb  Rb4       1.0  0.2764  0.0  0.5  1.0000
  Rb  Rb5       1.0  5.679151208518795e-18  0.2764  0.5  1.0000
  Rb  Rb6       1.0  0.7236  0.7236  0.5  1.0000
  Na  Na1       1.0  0.33329999999999993  0.6666999999999997  0.75  1.0000
  Na  Na2       1.0  0.6666999999999998  0.33329999999999993  0.25  1.0000
  C   C1        1.0  0.9878  0.6164  0.75  1.0000
  C   C2        1.0  0.3836000000000001  0.37140000000000006  0.75  1.0000
  C   C3        1.0  0.6286  0.012199999999999987  0.75  1.0000
  C   C4        1.0  0.6164  0.9877999999999999  0.25  1.0000
  C   C5        1.0  0.3714000000000001  0.38360000000000005  0.25  1.0000
  C   C6        1.0  0.012199999999999999  0.6285999999999999  0.25  1.0000
  O   O1        1.0  0.9642  0.46889999999999993  0.75  1.0000
  O   O2        1.0  0.5311000000000001  0.4953000000000001  0.75  1.0000
  O   O3        1.0  0.5047  0.035800000000000054  0.75  1.0000
  O   O4        1.0  0.4689  0.9642  0.25  1.0000
  O   O5        1.0  0.49529999999999996  0.5311  0.25  1.0000
  O   O6        1.0  0.035800000000000054  0.5046999999999999  0.25  1.0000
  O   O7        1.0  0.8564  0.625  0.75  1.0000
  O   O8        1.0  0.375  0.23140000000000005  0.75  1.0000
  O   O9        1.0  0.7686000000000001  0.14359999999999995  0.75  1.0000
  O   O10       1.0  0.6250000000000001  0.8564  0.25  1.0000
  O   O11       1.0  0.23140000000000008  0.375  0.25  1.0000
  O   O12       1.0  0.14359999999999992  0.7685999999999998  0.25  1.0000
  O   O13       1.0  0.6667  0.3333  0.9628  1.0000
  O   O14       1.0  0.6667  0.3333  0.5372  1.0000
  O   O15       1.0  0.33329999999999993  0.6666999999999998  0.03720000000000001  1.0000
  O   O16       1.0  0.33329999999999993  0.6666999999999998  0.4628000000000001  1.0000
  O   O17       1.0  0.12620000000000006  0.7387999999999998  0.75  1.0000
  O   O18       1.0  0.26120000000000004  0.38740000000000013  0.75  1.0000
  O   O19       1.0  0.6125999999999998  0.8737999999999999  0.75  1.0000
  O   O20       1.0  0.7387999999999999  0.1262000000000001  0.25  1.0000
  O   O21       1.0  0.3874000000000002  0.2612000000000001  0.25  1.0000
  O   O22       1.0  0.8738  0.6125999999999998  0.25  1.0000
  O   O23       1.0  0.0  0.0  0.198  0.2500
  O   O24       1.0  0.0  0.0  0.302  0.2500
  O   O25       1.0  0.0  0.0  0.802  0.2500
  O   O26       1.0  0.0  0.0  0.698  0.2500
