data_image0
_chemical_formula_structural       Rb6Al4O14B6O6Al4F2
_chemical_formula_sum              "Rb6 Al8 O20 B6 F2"
_cell_length_a       8.6819
_cell_length_b       8.6819
_cell_length_c       8.7423
_cell_angle_alpha    90.0
_cell_angle_beta     90.0
_cell_angle_gamma    119.99999999999999

_space_group_name_H-M_alt    "P 1"
_space_group_IT_number       1

loop_
  _space_group_symop_operation_xyz
  'x, y, z'

loop_
  _atom_site_type_symbol
  _atom_site_label
  _atom_site_symmetry_multiplicity
  _atom_site_fract_x
  _atom_site_fract_y
  _atom_site_fract_z
  _atom_site_occupancy
  Rb  Rb1       1.0  0.02839000000000001  0.34792  0.8043499999999998  1.0000
  Rb  Rb2       1.0  0.65208  0.68047  0.8043499999999998  1.0000
  Rb  Rb3       1.0  0.31953000000000004  0.97161  0.8043499999999998  1.0000
  Rb  Rb4       1.0  0.34792  0.02839000000000001  0.3043499999999999  1.0000
  Rb  Rb5       1.0  0.68047  0.6520799999999999  0.3043499999999999  1.0000
  Rb  Rb6       1.0  0.97161  0.31953  0.3043499999999999  1.0000
  Al  Al1       1.0  0.3333  0.6667  0.11309999999999996  1.0000
  Al  Al2       1.0  0.6666999999999998  0.33329999999999993  0.6131  1.0000
  Al  Al3       1.0  0.3333  0.6667  0.5044  1.0000
  Al  Al4       1.0  0.6666999999999998  0.33329999999999993  0.0043999999999999595  1.0000
  O   O1        1.0  0.3854  0.5083  0.5763  1.0000
  O   O2        1.0  0.4917  0.8771  0.5763  1.0000
  O   O3        1.0  0.12289999999999997  0.6146  0.5763  1.0000
  O   O4        1.0  0.5083  0.3854  0.07630000000000003  1.0000
  O   O5        1.0  0.8771  0.4917  0.07630000000000003  1.0000
  O   O6        1.0  0.6146  0.12289999999999995  0.07630000000000003  1.0000
  O   O7        1.0  0.15679999999999994  0.21369999999999995  0.5341999999999999  1.0000
  O   O8        1.0  0.7863  0.9431  0.5341999999999999  1.0000
  O   O9        1.0  0.056900000000000006  0.8432000000000001  0.5341999999999999  1.0000
  O   O10       1.0  0.21369999999999997  0.15679999999999997  0.034199999999999786  1.0000
  O   O11       1.0  0.9431  0.7863  0.034199999999999786  1.0000
  O   O12       1.0  0.8432000000000001  0.056900000000000006  0.034199999999999786  1.0000
  O   O13       1.0  0.3333  0.6667  0.3079  1.0000
  O   O14       1.0  0.6666999999999998  0.33329999999999993  0.8079  1.0000
  B   B1        1.0  0.335  0.3349  0.557  1.0000
  B   B2        1.0  0.6651  0.00010000000000004448  0.557  1.0000
  B   B3        1.0  0.9999  0.665  0.557  1.0000
  B   B4        1.0  0.3349  0.335  0.05699999999999994  1.0000
  B   B5        1.0  0.00010000000000006401  0.6651  0.05699999999999994  1.0000
  B   B6        1.0  0.6649999999999999  0.9998999999999999  0.05699999999999994  1.0000
  O   O15       1.0  0.456  0.2815  0.5456  1.0000
  O   O16       1.0  0.7185  0.17450000000000002  0.5456  1.0000
  O   O17       1.0  0.8254999999999999  0.544  0.5456  1.0000
  O   O18       1.0  0.2815  0.45599999999999996  0.04559999999999986  1.0000
  O   O19       1.0  0.1745  0.7184999999999999  0.04559999999999986  1.0000
  O   O20       1.0  0.5439999999999999  0.8254999999999998  0.04559999999999986  1.0000
  Al  Al5       1.0  0.0  0.0  0.48349999999999993  0.5000
  Al  Al6       1.0  0.0  0.0  0.9834999999999999  0.5000
  Al  Al7       1.0  0.0  0.0  0.5877  0.5000
  Al  Al8       1.0  0.0  0.0  0.08769999999999989  0.5000
  F   F1        1.0  0.0  0.0  0.7869999999999998  1.0000
  F   F2        1.0  0.0  0.0  0.2869999999999999  1.0000
