data_image0
_chemical_formula_structural       Mo12P18Si6O75
_chemical_formula_sum              "Mo12 P18 Si6 O75"
_cell_length_a       14.705
_cell_length_b       14.705
_cell_length_c       7.3986
_cell_angle_alpha    90.0
_cell_angle_beta     90.0
_cell_angle_gamma    119.99999999999999

_space_group_name_H-M_alt    "P 1"
_space_group_IT_number       1

loop_
  _space_group_symop_operation_xyz
  'x, y, z'

loop_
  _atom_site_type_symbol
  _atom_site_label
  _atom_site_symmetry_multiplicity
  _atom_site_fract_x
  _atom_site_fract_y
  _atom_site_fract_z
  _atom_site_occupancy
  Mo  Mo1       1.0  0.33924  0.34041999999999994  0.07322000000000002  1.0000
  Mo  Mo2       1.0  0.65958  0.9988199999999999  0.07322000000000002  1.0000
  Mo  Mo3       1.0  0.0011799999999999328  0.66076  0.07322000000000002  1.0000
  Mo  Mo4       1.0  0.66076  0.65958  0.92678  1.0000
  Mo  Mo5       1.0  0.34041999999999994  0.0011799999999999589  0.92678  1.0000
  Mo  Mo6       1.0  0.99882  0.33924  0.92678  1.0000
  Mo  Mo7       1.0  0.3286600000000001  0.3262  0.4246  1.0000
  Mo  Mo8       1.0  0.6738  0.0024600000000000732  0.4246  1.0000
  Mo  Mo9       1.0  0.9975399999999999  0.6713399999999999  0.4246  1.0000
  Mo  Mo10      1.0  0.67134  0.6738  0.5754  1.0000
  Mo  Mo11      1.0  0.3262  0.9975399999999999  0.5754  1.0000
  Mo  Mo12      1.0  0.00246000000000007  0.32866000000000006  0.5754  1.0000
  P   P1        1.0  0.43680000000000013  0.1886  0.2501  1.0000
  P   P2        1.0  0.8114  0.24820000000000006  0.2501  1.0000
  P   P3        1.0  0.7518  0.5631999999999999  0.2501  1.0000
  P   P4        1.0  0.5631999999999999  0.8114  0.7499000000000001  1.0000
  P   P5        1.0  0.1886  0.7517999999999999  0.7499000000000001  1.0000
  P   P6        1.0  0.2482000000000001  0.4368000000000001  0.7499000000000001  1.0000
  P   P7        1.0  0.08559999999999998  0.23009999999999997  0.24700000000000005  1.0000
  P   P8        1.0  0.7699  0.8555  0.24700000000000005  1.0000
  P   P9        1.0  0.14449999999999993  0.9143999999999999  0.24700000000000005  1.0000
  P   P10       1.0  0.9144  0.7698999999999999  0.7530000000000001  1.0000
  P   P11       1.0  0.23009999999999994  0.14449999999999996  0.7530000000000001  1.0000
  P   P12       1.0  0.8555000000000001  0.08559999999999998  0.7530000000000001  1.0000
  P   P13       1.0  0.10360000000000004  0.5224  0.255  1.0000
  P   P14       1.0  0.47759999999999997  0.5812  0.255  1.0000
  P   P15       1.0  0.41879999999999995  0.8964  0.255  1.0000
  P   P16       1.0  0.8964  0.47759999999999997  0.745  1.0000
  P   P17       1.0  0.5224  0.41879999999999995  0.745  1.0000
  P   P18       1.0  0.5812  0.10360000000000003  0.745  1.0000
  Si  Si1       1.0  0.0  0.0  0.2895000000000001  1.0000
  Si  Si2       1.0  0.0  0.0  0.7104999999999999  1.0000
  Si  Si3       1.0  0.33330000000000015  0.6667000000000001  0.2155  1.0000
  Si  Si4       1.0  0.6666999999999998  0.3332999999999999  0.7845000000000001  1.0000
  Si  Si5       1.0  0.6666999999999998  0.3332999999999999  0.21630000000000005  1.0000
  Si  Si6       1.0  0.33330000000000015  0.6667000000000001  0.7837000000000001  1.0000
  O   O1        1.0  0.20630000000000007  0.3018  0.24220000000000005  1.0000
  O   O2        1.0  0.6981999999999999  0.9045000000000001  0.24220000000000005  1.0000
  O   O3        1.0  0.09549999999999996  0.7936999999999999  0.24220000000000005  1.0000
  O   O4        1.0  0.7937  0.6981999999999998  0.7578  1.0000
  O   O5        1.0  0.3018  0.09549999999999996  0.7578  1.0000
  O   O6        1.0  0.9045000000000001  0.2063  0.7578  1.0000
  O   O7        1.0  0.2521  0.21839999999999996  0.9080000000000001  1.0000
  O   O8        1.0  0.7816000000000001  0.03370000000000001  0.9080000000000001  1.0000
  O   O9        1.0  0.9662999999999999  0.7479  0.9080000000000001  1.0000
  O   O10       1.0  0.7479  0.7816000000000001  0.09200000000000003  1.0000
  O   O11       1.0  0.2184  0.9662999999999999  0.09200000000000003  1.0000
  O   O12       1.0  0.033700000000000015  0.2521  0.09200000000000003  1.0000
  O   O13       1.0  0.3646  0.23689999999999994  0.23900000000000005  1.0000
  O   O14       1.0  0.7631  0.1277  0.23900000000000005  1.0000
  O   O15       1.0  0.8723  0.6353999999999999  0.23900000000000005  1.0000
  O   O16       1.0  0.6354  0.7631  0.7610000000000001  1.0000
  O   O17       1.0  0.23689999999999992  0.8722999999999999  0.7610000000000001  1.0000
  O   O18       1.0  0.1277  0.3646  0.7610000000000001  1.0000
  O   O19       1.0  0.4747  0.3786  0.9290000000000002  1.0000
  O   O20       1.0  0.6214  0.0961  0.9290000000000002  1.0000
  O   O21       1.0  0.9039  0.5253  0.9290000000000002  1.0000
  O   O22       1.0  0.5253  0.6213999999999998  0.07100000000000001  1.0000
  O   O23       1.0  0.37859999999999994  0.9038999999999998  0.07100000000000001  1.0000
  O   O24       1.0  0.09609999999999999  0.47469999999999996  0.07100000000000001  1.0000
  O   O25       1.0  0.43029999999999996  0.4597999999999999  0.2674  1.0000
  O   O26       1.0  0.5402  0.9705000000000001  0.2674  1.0000
  O   O27       1.0  0.029499999999999877  0.5696999999999999  0.2674  1.0000
  O   O28       1.0  0.5697  0.5402  0.7325999999999999  1.0000
  O   O29       1.0  0.45979999999999993  0.029499999999999915  0.7325999999999999  1.0000
  O   O30       1.0  0.9705000000000003  0.4303  0.7325999999999999  1.0000
  O   O31       1.0  0.30260000000000004  0.4364  0.9238000000000001  1.0000
  O   O32       1.0  0.5636  0.8662  0.9238000000000001  1.0000
  O   O33       1.0  0.13379999999999997  0.6974  0.9238000000000001  1.0000
  O   O34       1.0  0.6974  0.5636  0.0762  1.0000
  O   O35       1.0  0.4364  0.13379999999999997  0.0762  1.0000
  O   O36       1.0  0.8662000000000001  0.3026  0.0762  1.0000
  O   O37       1.0  0.23260000000000006  0.1891  0.5687000000000001  1.0000
  O   O38       1.0  0.8109  0.04350000000000004  0.5687000000000001  1.0000
  O   O39       1.0  0.9564999999999999  0.7674  0.5687000000000001  1.0000
  O   O40       1.0  0.7674  0.8109  0.4313000000000001  1.0000
  O   O41       1.0  0.1891  0.9564999999999999  0.4313000000000001  1.0000
  O   O42       1.0  0.04350000000000004  0.2326  0.4313000000000001  1.0000
  O   O43       1.0  0.4545  0.36239999999999994  0.5885000000000001  1.0000
  O   O44       1.0  0.6376000000000001  0.09210000000000006  0.5885000000000001  1.0000
  O   O45       1.0  0.9078999999999999  0.5455  0.5885000000000001  1.0000
  O   O46       1.0  0.5455  0.6376  0.4115  1.0000
  O   O47       1.0  0.36239999999999994  0.9078999999999999  0.4115  1.0000
  O   O48       1.0  0.09210000000000004  0.45449999999999996  0.4115  1.0000
  O   O49       1.0  0.2897  0.41219999999999996  0.583  1.0000
  O   O50       1.0  0.5878000000000001  0.8775000000000001  0.583  1.0000
  O   O51       1.0  0.12249999999999996  0.7102999999999999  0.583  1.0000
  O   O52       1.0  0.7103  0.5878000000000001  0.4170000000000001  1.0000
  O   O53       1.0  0.41219999999999996  0.12249999999999993  0.4170000000000001  1.0000
  O   O54       1.0  0.8775000000000001  0.2897  0.4170000000000001  1.0000
  O   O55       1.0  0.06909999999999998  0.11769999999999997  0.20980000000000004  1.0000
  O   O56       1.0  0.8823000000000001  0.9514  0.20980000000000004  1.0000
  O   O57       1.0  0.04859999999999997  0.9309  0.20980000000000004  1.0000
  O   O58       1.0  0.9309  0.8822999999999999  0.7902  1.0000
  O   O59       1.0  0.11769999999999999  0.0486  0.7902  1.0000
  O   O60       1.0  0.9514  0.06909999999999998  0.7902  1.0000
  O   O61       1.0  0.0  0.0  0.5  1.0000
  O   O62       1.0  0.40569999999999995  0.7844999999999999  0.282  1.0000
  O   O63       1.0  0.21550000000000002  0.6212  0.282  1.0000
  O   O64       1.0  0.3788  0.5943  0.282  1.0000
  O   O65       1.0  0.5943  0.2155  0.718  1.0000
  O   O66       1.0  0.7845  0.3788  0.718  1.0000
  O   O67       1.0  0.6212  0.4057  0.718  1.0000
  O   O68       1.0  0.7148  0.2638  0.285  1.0000
  O   O69       1.0  0.7362  0.451  0.285  1.0000
  O   O70       1.0  0.5489999999999999  0.2852  0.285  1.0000
  O   O71       1.0  0.2852  0.7362  0.7150000000000002  1.0000
  O   O72       1.0  0.2638  0.5489999999999999  0.7150000000000002  1.0000
  O   O73       1.0  0.45100000000000007  0.7147999999999999  0.7150000000000002  1.0000
  O   O74       1.0  0.6666999999999998  0.3332999999999999  0.0007000000000000002  1.0000
  O   O75       1.0  0.33330000000000015  0.6667000000000001  0.9993000000000001  1.0000
