data_image0
_chemical_formula_structural       Rb8V4Si16O48
_chemical_formula_sum              "Rb8 V4 Si16 O48"
_cell_length_a       12.2225
_cell_length_b       12.2225
_cell_length_c       7.7948
_cell_angle_alpha    90.0
_cell_angle_beta     90.0
_cell_angle_gamma    90.0

_space_group_name_H-M_alt    "P 1"
_space_group_IT_number       1

loop_
  _space_group_symop_operation_xyz
  'x, y, z'

loop_
  _atom_site_type_symbol
  _atom_site_label
  _atom_site_symmetry_multiplicity
  _atom_site_fract_x
  _atom_site_fract_y
  _atom_site_fract_z
  _atom_site_occupancy
  Rb  Rb1       1.0  0.0  0.21221000000000004  0.05787000000000001  1.0000
  Rb  Rb2       1.0  0.5  0.28779  0.55787  1.0000
  Rb  Rb3       1.0  0.7877900000000001  0.5  0.30787000000000003  1.0000
  Rb  Rb4       1.0  0.71221  0.0  0.80787  1.0000
  Rb  Rb5       1.0  0.0  0.7877900000000001  0.05787000000000001  1.0000
  Rb  Rb6       1.0  0.5  0.71221  0.55787  1.0000
  Rb  Rb7       1.0  0.28779  0.0  0.80787  1.0000
  Rb  Rb8       1.0  0.21221000000000004  0.5  0.30787000000000003  1.0000
  V   V1        1.0  0.0  0.0  0.70285  1.0000
  V   V2        1.0  0.5  0.5  0.20284999999999992  1.0000
  V   V3        1.0  0.0  0.5  0.9528500000000001  1.0000
  V   V4        1.0  0.5  0.0  0.4528499999999999  1.0000
  Si  Si1       1.0  0.29137  0.11965  0.26536  1.0000
  Si  Si2       1.0  0.20863  0.38034999999999997  0.7653600000000002  1.0000
  Si  Si3       1.0  0.8803500000000001  0.79137  0.51536  1.0000
  Si  Si4       1.0  0.6196500000000001  0.7086300000000001  0.015360000000000042  1.0000
  Si  Si5       1.0  0.29137  0.8803500000000001  0.26536  1.0000
  Si  Si6       1.0  0.20863  0.6196500000000001  0.7653600000000002  1.0000
  Si  Si7       1.0  0.8803500000000001  0.20863  0.51536  1.0000
  Si  Si8       1.0  0.6196500000000001  0.29137  0.015360000000000042  1.0000
  Si  Si9       1.0  0.79137  0.6196500000000001  0.7653600000000002  1.0000
  Si  Si10      1.0  0.7086300000000001  0.8803500000000001  0.26536  1.0000
  Si  Si11      1.0  0.38034999999999997  0.29137  0.015360000000000042  1.0000
  Si  Si12      1.0  0.11965  0.20863  0.51536  1.0000
  Si  Si13      1.0  0.79137  0.38034999999999997  0.7653600000000002  1.0000
  Si  Si14      1.0  0.7086300000000001  0.11965  0.26536  1.0000
  Si  Si15      1.0  0.38034999999999997  0.7086300000000001  0.015360000000000042  1.0000
  Si  Si16      1.0  0.11965  0.79137  0.51536  1.0000
  O   O1        1.0  0.2515  0.0  0.1978  1.0000
  O   O2        1.0  0.24850000000000003  0.5  0.6978000000000001  1.0000
  O   O3        1.0  0.0  0.7515000000000002  0.44780000000000003  1.0000
  O   O4        1.0  0.5  0.7484999999999999  0.9478  1.0000
  O   O5        1.0  0.0  0.24850000000000003  0.44780000000000003  1.0000
  O   O6        1.0  0.5  0.2515  0.9478  1.0000
  O   O7        1.0  0.7515000000000002  0.5  0.6978000000000001  1.0000
  O   O8        1.0  0.7484999999999999  0.0  0.1978  1.0000
  O   O9        1.0  0.18410000000000007  0.1812  0.3393000000000001  1.0000
  O   O10       1.0  0.31589999999999996  0.31880000000000003  0.8393000000000002  1.0000
  O   O11       1.0  0.8188000000000001  0.6841000000000002  0.5893  1.0000
  O   O12       1.0  0.6812  0.8159  0.08930000000000016  1.0000
  O   O13       1.0  0.18410000000000007  0.8188000000000001  0.3393000000000001  1.0000
  O   O14       1.0  0.31589999999999996  0.6812  0.8393000000000002  1.0000
  O   O15       1.0  0.8188000000000001  0.31589999999999996  0.5893  1.0000
  O   O16       1.0  0.6812  0.18410000000000007  0.08930000000000016  1.0000
  O   O17       1.0  0.6841000000000002  0.6812  0.8393000000000002  1.0000
  O   O18       1.0  0.8159  0.8188000000000001  0.3393000000000001  1.0000
  O   O19       1.0  0.31880000000000003  0.18410000000000007  0.08930000000000016  1.0000
  O   O20       1.0  0.1812  0.31589999999999996  0.5893  1.0000
  O   O21       1.0  0.6841000000000002  0.31880000000000003  0.8393000000000002  1.0000
  O   O22       1.0  0.8159  0.1812  0.3393000000000001  1.0000
  O   O23       1.0  0.31880000000000003  0.8159  0.08930000000000016  1.0000
  O   O24       1.0  0.1812  0.6841000000000002  0.5893  1.0000
  O   O25       1.0  0.3897000000000001  0.11200000000000002  0.3967  1.0000
  O   O26       1.0  0.11029999999999997  0.388  0.8967  1.0000
  O   O27       1.0  0.8880000000000001  0.8897  0.6467000000000002  1.0000
  O   O28       1.0  0.6120000000000001  0.6103  0.14670000000000008  1.0000
  O   O29       1.0  0.3897000000000001  0.8880000000000001  0.3967  1.0000
  O   O30       1.0  0.11029999999999997  0.6120000000000001  0.8967  1.0000
  O   O31       1.0  0.8880000000000001  0.11029999999999997  0.6467000000000002  1.0000
  O   O32       1.0  0.6120000000000001  0.3897000000000001  0.14670000000000008  1.0000
  O   O33       1.0  0.8897  0.6120000000000001  0.8967  1.0000
  O   O34       1.0  0.6103  0.8880000000000001  0.3967  1.0000
  O   O35       1.0  0.388  0.3897000000000001  0.14670000000000008  1.0000
  O   O36       1.0  0.11200000000000002  0.11029999999999997  0.6467000000000002  1.0000
  O   O37       1.0  0.8897  0.388  0.8967  1.0000
  O   O38       1.0  0.6103  0.11200000000000002  0.3967  1.0000
  O   O39       1.0  0.388  0.6103  0.14670000000000008  1.0000
  O   O40       1.0  0.11200000000000002  0.8897  0.6467000000000002  1.0000
  O   O41       1.0  0.0  0.0  0.9086  1.0000
  O   O42       1.0  0.5  0.5  0.4086  1.0000
  O   O43       1.0  0.0  0.5  0.1586  1.0000
  O   O44       1.0  0.5  0.0  0.6586000000000001  1.0000
  O   O45       1.0  0.0  0.0  0.33600000000000013  0.1200
  O   O46       1.0  0.5  0.5  0.8360000000000001  0.1200
  O   O47       1.0  0.0  0.5  0.5860000000000001  0.1200
  O   O48       1.0  0.5  0.0  0.08600000000000008  0.1200
