data_image0
_chemical_formula_structural       Ba2Be4Si4O14
_chemical_formula_sum              "Ba2 Be4 Si4 O14"
_cell_length_a       11.6491
_cell_length_b       4.9175
_cell_length_c       4.6746
_cell_angle_alpha    90.0
_cell_angle_beta     90.0
_cell_angle_gamma    90.0

_space_group_name_H-M_alt    "P 1"
_space_group_IT_number       1

loop_
  _space_group_symop_operation_xyz
  'x, y, z'

loop_
  _atom_site_type_symbol
  _atom_site_label
  _atom_site_symmetry_multiplicity
  _atom_site_fract_x
  _atom_site_fract_y
  _atom_site_fract_z
  _atom_site_occupancy
  Ba  Ba1       1.0  0.4999999999999999  0.20316  0.5905  1.0000
  Ba  Ba2       1.0  0.0  0.79684  0.09050000000000004  1.0000
  Be  Be1       1.0  0.75108  0.16930000000000003  0.0849  1.0000
  Be  Be2       1.0  0.25107999999999997  0.8307  0.5849  1.0000
  Be  Be3       1.0  0.7489199999999999  0.8307  0.5849  1.0000
  Be  Be4       1.0  0.24892  0.16930000000000003  0.0849  1.0000
  Si  Si1       1.0  0.6282599999999999  0.6752800000000001  0.0692  1.0000
  Si  Si2       1.0  0.12826000000000004  0.3247199999999999  0.5692  1.0000
  Si  Si3       1.0  0.87174  0.3247199999999999  0.5692  1.0000
  Si  Si4       1.0  0.37174  0.6752800000000001  0.0692  1.0000
  O   O1        1.0  0.6389499999999999  0.35600000000000004  0.1367  1.0000
  O   O2        1.0  0.1389499999999999  0.6439999999999999  0.6367  1.0000
  O   O3        1.0  0.86105  0.6439999999999999  0.6367  1.0000
  O   O4        1.0  0.3610500000000001  0.35600000000000004  0.1367  1.0000
  O   O5        1.0  0.77699  0.134  0.7298  1.0000
  O   O6        1.0  0.27699000000000007  0.866  0.22979999999999998  1.0000
  O   O7        1.0  0.7230099999999999  0.866  0.22979999999999998  1.0000
  O   O8        1.0  0.22301000000000004  0.134  0.7298  1.0000
  O   O9        1.0  0.4999999999999999  0.7764  0.1793  1.0000
  O   O10       1.0  0.0  0.22360000000000005  0.6793  1.0000
  O   O11       1.0  0.63272  0.7295000000000001  0.7283999999999999  1.0000
  O   O12       1.0  0.13271999999999995  0.27049999999999985  0.22840000000000002  1.0000
  O   O13       1.0  0.8672799999999999  0.27049999999999985  0.22840000000000002  1.0000
  O   O14       1.0  0.36728000000000005  0.7295000000000001  0.7283999999999999  1.0000
