data_image0
_chemical_formula_structural       Li12Au4S8
_chemical_formula_sum              "Li12 Au4 S8"
_cell_length_a       5.7689
_cell_length_b       11.287
_cell_length_c       6.2813
_cell_angle_alpha    90.0
_cell_angle_beta     90.0
_cell_angle_gamma    90.0

_space_group_name_H-M_alt    "P 1"
_space_group_IT_number       1

loop_
  _space_group_symop_operation_xyz
  'x, y, z'

loop_
  _atom_site_type_symbol
  _atom_site_label
  _atom_site_symmetry_multiplicity
  _atom_site_fract_x
  _atom_site_fract_y
  _atom_site_fract_z
  _atom_site_occupancy
  Li  Li1       1.0  0.0  0.23  0.25  1.0000
  Li  Li2       1.0  0.0  0.77  0.25  1.0000
  Li  Li3       1.0  0.49999999999999994  0.7300000000000001  0.7499999999999999  1.0000
  Li  Li4       1.0  0.49999999999999994  0.27  0.7499999999999999  1.0000
  Li  Li5       1.0  0.0  0.77  0.7499999999999999  1.0000
  Li  Li6       1.0  0.0  0.23  0.7499999999999999  1.0000
  Li  Li7       1.0  0.49999999999999994  0.27  0.25  1.0000
  Li  Li8       1.0  0.49999999999999994  0.7300000000000001  0.25  1.0000
  Li  Li9       1.0  0.4999999999999999  0.0  0.25  1.0000
  Li  Li10      1.0  5.551115123125782e-17  0.5  0.7499999999999999  1.0000
  Li  Li11      1.0  0.49999999999999994  0.0  0.7499999999999999  1.0000
  Li  Li12      1.0  0.0  0.5  0.25  1.0000
  Au  Au1       1.0  0.0  0.0  0.0  1.0000
  Au  Au2       1.0  0.49999999999999994  0.5  0.0  1.0000
  Au  Au3       1.0  0.49999999999999994  0.5  0.5  1.0000
  Au  Au4       1.0  0.0  0.0  0.5  1.0000
  S   S1        1.0  0.2925  0.14053  0.0  1.0000
  S   S2        1.0  0.7075  0.8594700000000001  0.0  1.0000
  S   S3        1.0  0.2075  0.64053  0.0  1.0000
  S   S4        1.0  0.7925  0.35947  0.0  1.0000
  S   S5        1.0  0.7925  0.64053  0.5  1.0000
  S   S6        1.0  0.2075  0.35947  0.5  1.0000
  S   S7        1.0  0.7075  0.14053  0.5  1.0000
  S   S8        1.0  0.2925  0.8594700000000001  0.5  1.0000
