data_image0
_chemical_formula_structural       Na12V4S12O4
_chemical_formula_sum              "Na12 V4 S12 O4"
_cell_length_a       9.6673
_cell_length_b       11.9122
_cell_length_c       5.8846
_cell_angle_alpha    90.0
_cell_angle_beta     90.0
_cell_angle_gamma    90.0

_space_group_name_H-M_alt    "P 1"
_space_group_IT_number       1

loop_
  _space_group_symop_operation_xyz
  'x, y, z'

loop_
  _atom_site_type_symbol
  _atom_site_label
  _atom_site_symmetry_multiplicity
  _atom_site_fract_x
  _atom_site_fract_y
  _atom_site_fract_z
  _atom_site_occupancy
  Na  Na1       1.0  0.0  0.88164  0.0  1.0000
  Na  Na2       1.0  0.0  0.11836  0.5  1.0000
  Na  Na3       1.0  0.5  0.38164  0.0  1.0000
  Na  Na4       1.0  0.5  0.6183599999999999  0.5  1.0000
  Na  Na5       1.0  0.79336  0.6199499999999999  0.98035  1.0000
  Na  Na6       1.0  0.20664000000000007  0.38005000000000005  0.4803500000000001  1.0000
  Na  Na7       1.0  0.79336  0.38005000000000005  0.4803500000000001  1.0000
  Na  Na8       1.0  0.20664000000000007  0.6199499999999999  0.98035  1.0000
  Na  Na9       1.0  0.29335999999999984  0.11994999999999977  0.98035  1.0000
  Na  Na10      1.0  0.70664  0.8800500000000001  0.4803500000000001  1.0000
  Na  Na11      1.0  0.29335999999999984  0.8800500000000001  0.4803500000000001  1.0000
  Na  Na12      1.0  0.70664  0.11994999999999977  0.98035  1.0000
  V   V1        1.0  0.0  0.7035999999999999  0.5789  1.0000
  V   V2        1.0  0.0  0.29640000000000005  0.07889999999999997  1.0000
  V   V3        1.0  0.5  0.20359999999999978  0.5789  1.0000
  V   V4        1.0  0.5  0.7964000000000001  0.07889999999999997  1.0000
  S   S1        1.0  0.0  0.8817999999999999  0.48267  1.0000
  S   S2        1.0  0.0  0.11820000000000007  0.98267  1.0000
  S   S3        1.0  0.5  0.38179999999999986  0.48267  1.0000
  S   S4        1.0  0.5  0.6182000000000001  0.98267  1.0000
  S   S5        1.0  0.68988  0.87609  0.9639  1.0000
  S   S6        1.0  0.31011999999999995  0.12390999999999996  0.46390000000000003  1.0000
  S   S7        1.0  0.68988  0.12390999999999996  0.46390000000000003  1.0000
  S   S8        1.0  0.31011999999999995  0.87609  0.9639  1.0000
  S   S9        1.0  0.18988000000000005  0.37609  0.9639  1.0000
  S   S10       1.0  0.81012  0.62391  0.46390000000000003  1.0000
  S   S11       1.0  0.18988000000000005  0.62391  0.46390000000000003  1.0000
  S   S12       1.0  0.81012  0.37609  0.9639  1.0000
  O   O1        1.0  0.0  0.6987699999999999  0.8630000000000001  1.0000
  O   O2        1.0  0.0  0.3012300000000001  0.363  1.0000
  O   O3        1.0  0.5  0.19876999999999986  0.8630000000000001  1.0000
  O   O4        1.0  0.5  0.8012300000000001  0.363  1.0000
