data_image0
_chemical_formula_structural       P4O8
_chemical_formula_sum              "P4 O8"
_cell_length_a       4.6135
_cell_length_b       4.6135
_cell_length_c       6.9991
_cell_angle_alpha    90.0
_cell_angle_beta     90.0
_cell_angle_gamma    90.0

_space_group_name_H-M_alt    "P 1"
_space_group_IT_number       1

loop_
  _space_group_symop_operation_xyz
  'x, y, z'

loop_
  _atom_site_type_symbol
  _atom_site_label
  _atom_site_symmetry_multiplicity
  _atom_site_fract_x
  _atom_site_fract_y
  _atom_site_fract_z
  _atom_site_occupancy
  P   P1        1.0  0.5  0.5  0.0  1.0000
  P   P2        1.0  0.5  0.0  0.25  1.0000
  P   P3        1.0  0.0  0.0  0.5  1.0000
  P   P4        1.0  0.0  0.5  0.7500000000000001  1.0000
  O   O1        1.0  0.36299999999999993  0.25  0.125  0.5000
  O   O2        1.0  0.25  0.6369999999999999  0.8750000000000001  0.5000
  O   O3        1.0  0.6369999999999999  0.75  0.125  0.5000
  O   O4        1.0  0.75  0.36299999999999993  0.8750000000000001  0.5000
  O   O5        1.0  0.75  0.13700000000000007  0.37500000000000006  0.5000
  O   O6        1.0  0.25  0.863  0.37500000000000006  0.5000
  O   O7        1.0  0.863  0.75  0.625  0.5000
  O   O8        1.0  0.13700000000000007  0.25  0.625  0.5000
  N   N1        1.0  0.36299999999999993  0.25  0.125  0.5000
  N   N2        1.0  0.25  0.6369999999999999  0.8750000000000001  0.5000
  N   N3        1.0  0.6369999999999999  0.75  0.125  0.5000
  N   N4        1.0  0.75  0.36299999999999993  0.8750000000000001  0.5000
  N   N5        1.0  0.75  0.13700000000000007  0.37500000000000006  0.5000
  N   N6        1.0  0.25  0.863  0.37500000000000006  0.5000
  N   N7        1.0  0.863  0.75  0.625  0.5000
  N   N8        1.0  0.13700000000000007  0.25  0.625  0.5000
