data_image0
_chemical_formula_structural       In8S4In8S4In4S4In4S4In4S4In4S4In4S4In4S4In4S4In20S44Zn16S52
_chemical_formula_sum              "In64 S132 Zn16"
_cell_length_a       24.736
_cell_length_b       26.149
_cell_length_c       26.677
_cell_angle_alpha    90.0
_cell_angle_beta     107.64999999999999
_cell_angle_gamma    90.0

_space_group_name_H-M_alt    "P 1"
_space_group_IT_number       1

loop_
  _space_group_symop_operation_xyz
  'x, y, z'

loop_
  _atom_site_type_symbol
  _atom_site_label
  _atom_site_symmetry_multiplicity
  _atom_site_fract_x
  _atom_site_fract_y
  _atom_site_fract_z
  _atom_site_occupancy
  In  In1       1.0  0.59041  0.7194  0.49514000000000014  1.0000
  In  In2       1.0  0.9095899999999999  0.21940000000000004  0.00485999999999992  1.0000
  In  In3       1.0  0.40958999999999995  0.28059999999999996  0.5048599999999999  1.0000
  In  In4       1.0  0.09040999999999991  0.7806  0.9951400000000001  1.0000
  In  In5       1.0  0.64367  0.7473400000000001  0.22046  1.0000
  In  In6       1.0  0.85633  0.24734000000000014  0.27954  1.0000
  In  In7       1.0  0.35633000000000004  0.2526599999999999  0.77954  1.0000
  In  In8       1.0  0.14366999999999996  0.75266  0.72046  1.0000
  S   S1        1.0  0.24238  0.75883  0.21328000000000005  1.0000
  S   S2        1.0  0.25762  0.2588300000000001  0.28672  1.0000
  S   S3        1.0  0.75762  0.24117000000000002  0.78672  1.0000
  S   S4        1.0  0.74238  0.74117  0.71328  1.0000
  In  In9       1.0  0.66423  0.48733  0.43077  1.0000
  In  In10      1.0  0.83577  0.98733  0.06923000000000001  1.0000
  In  In11      1.0  0.33576999999999996  0.51267  0.56923  1.0000
  In  In12      1.0  0.16422999999999985  0.012670000000000016  0.9307700000000001  1.0000
  In  In13      1.0  0.71919  0.71357  0.6225900000000001  1.0000
  In  In14      1.0  0.78081  0.21357000000000004  0.87741  1.0000
  In  In15      1.0  0.28081  0.28642999999999996  0.37740999999999997  1.0000
  In  In16      1.0  0.21919  0.78643  0.1225900000000002  1.0000
  S   S5        1.0  0.3403  0.63683  0.22458000000000006  1.0000
  S   S6        1.0  0.1597  0.13683  0.27542  1.0000
  S   S7        1.0  0.6597  0.36317000000000005  0.77542  1.0000
  S   S8        1.0  0.8403  0.86317  0.72458  1.0000
  In  In17      1.0  0.46566  0.72375  0.36959  1.0000
  In  In18      1.0  0.03433999999999998  0.2237499999999999  0.13041000000000003  1.0000
  In  In19      1.0  0.5343399999999999  0.27625  0.63041  1.0000
  In  In20      1.0  0.9656600000000001  0.77625  0.86959  1.0000
  S   S9        1.0  0.36734  0.74961  0.3342  1.0000
  S   S10       1.0  0.13266  0.2496100000000001  0.1658  1.0000
  S   S11       1.0  0.63266  0.25039  0.6658000000000001  1.0000
  S   S12       1.0  0.8673399999999999  0.75039  0.8342000000000002  1.0000
  In  In21      1.0  0.7769799999999998  0.7437599999999999  0.35585000000000006  1.0000
  In  In22      1.0  0.7230200000000001  0.24375999999999998  0.14414999999999994  1.0000
  In  In23      1.0  0.22302000000000008  0.25624000000000013  0.64415  1.0000
  In  In24      1.0  0.27698  0.7562400000000001  0.85585  1.0000
  S   S13       1.0  0.39873  0.77456  0.19588  1.0000
  S   S14       1.0  0.10127000000000001  0.27456000000000014  0.30412  1.0000
  S   S15       1.0  0.60127  0.22543999999999997  0.80412  1.0000
  S   S16       1.0  0.89873  0.72544  0.69588  1.0000
  In  In25      1.0  0.74624  0.73451  0.48653  1.0000
  In  In26      1.0  0.75376  0.23451000000000002  0.013469999999999984  1.0000
  In  In27      1.0  0.25376  0.26549  0.51347  1.0000
  In  In28      1.0  0.24624000000000004  0.7654900000000001  0.9865300000000001  1.0000
  S   S17       1.0  0.4358099999999999  0.51729  0.25685  1.0000
  S   S18       1.0  0.06419000000000008  0.017290000000000028  0.24314999999999998  1.0000
  S   S19       1.0  0.56419  0.48271  0.7431500000000001  1.0000
  S   S20       1.0  0.9358099999999998  0.98271  0.75685  1.0000
  In  In29      1.0  0.53344  0.49202  0.29787  1.0000
  In  In30      1.0  0.9665599999999999  0.99202  0.20213  1.0000
  In  In31      1.0  0.46656  0.50798  0.70213  1.0000
  In  In32      1.0  0.03344000000000014  0.007979999999999987  0.7978700000000002  1.0000
  S   S21       1.0  0.47018  0.63  0.36273  1.0000
  S   S22       1.0  0.029820000000000006  0.1299999999999999  0.13727  1.0000
  S   S23       1.0  0.52982  0.36999999999999994  0.63727  1.0000
  S   S24       1.0  0.9701799999999999  0.87  0.86273  1.0000
  In  In33      1.0  0.6924499999999999  0.59913  0.52646  1.0000
  In  In34      1.0  0.8075500000000001  0.09913000000000016  0.9735400000000001  1.0000
  In  In35      1.0  0.3075500000000001  0.40087  0.47354  1.0000
  In  In36      1.0  0.19245000000000004  0.90087  0.026460000000000154  1.0000
  S   S25       1.0  0.4931099999999999  0.74854  0.46128  1.0000
  S   S26       1.0  0.0068900000000000645  0.24853999999999998  0.038719999999999984  1.0000
  S   S27       1.0  0.5068900000000001  0.25146  0.53872  1.0000
  S   S28       1.0  0.9931099999999999  0.75146  0.9612800000000001  1.0000
  In  In37      1.0  0.43627  0.60886  0.26793  1.0000
  In  In38      1.0  0.06373000000000001  0.10885999999999996  0.23207000000000003  1.0000
  In  In39      1.0  0.56373  0.39114000000000004  0.73207  1.0000
  In  In40      1.0  0.93627  0.89114  0.7679300000000001  1.0000
  S   S29       1.0  0.4990799999999999  0.65011  0.22259000000000004  1.0000
  S   S30       1.0  0.0009200000000000388  0.15010999999999997  0.27740999999999993  1.0000
  S   S31       1.0  0.5009200000000001  0.34989000000000003  0.77741  1.0000
  S   S32       1.0  0.9990800000000001  0.84989  0.7225900000000002  1.0000
  In  In41      1.0  0.69127  0.50244  0.29181  1.0000
  In  In42      1.0  0.8087299999999998  0.0024399999999999977  0.20819000000000001  1.0000
  In  In43      1.0  0.30872999999999995  0.49756  0.70819  1.0000
  In  In44      1.0  0.19127000000000005  0.99756  0.79181  1.0000
  S   S33       1.0  0.52834  0.76846  0.3265500000000001  1.0000
  S   S34       1.0  0.97166  0.26846000000000014  0.17344999999999997  1.0000
  S   S35       1.0  0.4716599999999999  0.23153999999999997  0.67345  1.0000
  S   S36       1.0  0.028340000000000063  0.7315400000000001  0.8265500000000002  1.0000
  In  In45      1.0  0.74605  0.627  0.25497  1.0000
  In  In46      1.0  0.75395  0.127  0.24503000000000005  1.0000
  In  In47      1.0  0.25395  0.373  0.7450300000000001  1.0000
  In  In48      1.0  0.24604999999999988  0.873  0.7549699999999999  1.0000
  In  In49      1.0  0.49540000000000006  0.74469  0.23372  1.0000
  In  In50      1.0  0.004599999999999943  0.24468999999999985  0.26627999999999996  1.0000
  In  In51      1.0  0.5045999999999999  0.25531000000000004  0.76628  1.0000
  In  In52      1.0  0.9954  0.75531  0.73372  1.0000
  In  In53      1.0  0.63319  0.37434  0.33224  1.0000
  In  In54      1.0  0.8668099999999999  0.87434  0.16776000000000002  1.0000
  In  In55      1.0  0.36680999999999997  0.6256600000000001  0.6677600000000001  1.0000
  In  In56      1.0  0.13318999999999995  0.12566  0.8322400000000001  1.0000
  In  In57      1.0  0.8005599999999998  0.75854  0.21916  1.0000
  In  In58      1.0  0.6994400000000001  0.25854  0.28084  1.0000
  In  In59      1.0  0.19944000000000003  0.24146  0.78084  1.0000
  In  In60      1.0  0.30055999999999994  0.74146  0.71916  1.0000
  In  In61      1.0  0.33958  0.7284  0.24019000000000001  1.0000
  In  In62      1.0  0.16042  0.22840000000000016  0.25981000000000004  1.0000
  In  In63      1.0  0.66042  0.27159999999999995  0.75981  1.0000
  In  In64      1.0  0.83958  0.7716000000000001  0.74019  1.0000
  S   S37       1.0  0.55033  0.7836100000000001  0.18296  1.0000
  S   S38       1.0  0.94967  0.28361000000000014  0.31704000000000004  1.0000
  S   S39       1.0  0.44967000000000007  0.21638999999999986  0.8170400000000001  1.0000
  S   S40       1.0  0.050330000000000034  0.71639  0.6829600000000001  1.0000
  S   S41       1.0  0.56517  0.51494  0.39188  1.0000
  S   S42       1.0  0.93483  0.014939999999999955  0.10812  1.0000
  S   S43       1.0  0.43483  0.48506000000000005  0.60812  1.0000
  S   S44       1.0  0.06516999999999994  0.9850600000000002  0.89188  1.0000
  S   S45       1.0  0.53608  0.39979  0.28738  1.0000
  S   S46       1.0  0.9639199999999999  0.89979  0.21261999999999998  1.0000
  S   S47       1.0  0.46392  0.60021  0.7126200000000001  1.0000
  S   S48       1.0  0.036080000000000174  0.10021000000000002  0.7873800000000001  1.0000
  S   S49       1.0  0.59318  0.62539  0.48643000000000003  1.0000
  S   S50       1.0  0.90682  0.1253899999999999  0.013569999999999971  1.0000
  S   S51       1.0  0.40682  0.37461000000000005  0.5135700000000001  1.0000
  S   S52       1.0  0.09318000000000005  0.87461  0.9864300000000001  1.0000
  S   S53       1.0  0.6704299999999999  0.39487  0.42548000000000014  1.0000
  S   S54       1.0  0.8295700000000001  0.89487  0.07451999999999993  1.0000
  S   S55       1.0  0.32957000000000014  0.60513  0.5745199999999999  1.0000
  S   S56       1.0  0.1704299999999999  0.10513  0.9254800000000002  1.0000
  S   S57       1.0  0.6772599999999999  0.77156  0.31533000000000005  1.0000
  S   S58       1.0  0.8227400000000001  0.27156  0.18466999999999995  1.0000
  S   S59       1.0  0.3227400000000001  0.22843999999999998  0.6846699999999999  1.0000
  S   S60       1.0  0.17726000000000006  0.72844  0.8153300000000002  1.0000
  S   S61       1.0  0.64675  0.6541800000000001  0.21192  1.0000
  S   S62       1.0  0.85325  0.15418000000000023  0.28808  1.0000
  S   S63       1.0  0.3532499999999999  0.3458199999999999  0.7880800000000001  1.0000
  S   S64       1.0  0.14674999999999996  0.8458199999999999  0.7119200000000001  1.0000
  S   S65       1.0  0.64848  0.7640200000000001  0.44699  1.0000
  S   S66       1.0  0.85152  0.26402000000000014  0.05301000000000001  1.0000
  S   S67       1.0  0.35152000000000017  0.23597999999999986  0.5530100000000001  1.0000
  S   S68       1.0  0.14847999999999997  0.73598  0.9469900000000001  1.0000
  S   S69       1.0  0.6238400000000001  0.64429  0.35215000000000013  1.0000
  S   S70       1.0  0.8761599999999998  0.14429000000000003  0.14784999999999993  1.0000
  S   S71       1.0  0.37615999999999994  0.35570999999999997  0.64785  1.0000
  S   S72       1.0  0.12383999999999998  0.85571  0.8521500000000002  1.0000
  S   S73       1.0  0.59352  0.53243  0.25  1.0000
  S   S74       1.0  0.90648  0.03242999999999996  0.25  1.0000
  S   S75       1.0  0.40647999999999995  0.46757000000000004  0.75  1.0000
  S   S76       1.0  0.09352000000000003  0.96757  0.75  1.0000
  S   S77       1.0  0.7008399999999999  0.5076  0.52293  1.0000
  S   S78       1.0  0.7991600000000001  0.007600000000000051  0.9770700000000001  1.0000
  S   S79       1.0  0.2991600000000001  0.49239999999999995  0.47707  1.0000
  S   S80       1.0  0.2008399999999999  0.9924  0.022930000000000117  1.0000
  Zn  Zn1       1.0  0.61907  0.73344  0.3606  1.0000
  Zn  Zn2       1.0  0.8809299999999999  0.23343999999999987  0.13940000000000002  1.0000
  Zn  Zn3       1.0  0.38092999999999994  0.26656  0.6394  1.0000
  Zn  Zn4       1.0  0.11907000000000001  0.76656  0.8606  1.0000
  Zn  Zn5       1.0  0.5920900000000001  0.62074  0.26249  1.0000
  Zn  Zn6       1.0  0.9079099999999998  0.12074000000000007  0.23751000000000003  1.0000
  Zn  Zn7       1.0  0.4079099999999999  0.37926000000000004  0.73751  1.0000
  Zn  Zn8       1.0  0.09209000000000023  0.87926  0.76249  1.0000
  Zn  Zn9       1.0  0.7179399999999999  0.61662  0.3901  1.0000
  Zn  Zn10      1.0  0.7820600000000001  0.11661999999999995  0.1099  1.0000
  Zn  Zn11      1.0  0.2820600000000001  0.38338000000000005  0.6099  1.0000
  Zn  Zn12      1.0  0.21794000000000005  0.8833800000000002  0.8901  1.0000
  Zn  Zn13      1.0  0.56539  0.60496  0.39652  1.0000
  Zn  Zn14      1.0  0.9346099999999999  0.10496000000000016  0.10348000000000002  1.0000
  Zn  Zn15      1.0  0.43461000000000005  0.39504  0.6034800000000001  1.0000
  Zn  Zn16      1.0  0.06538999999999986  0.89504  0.8965200000000001  1.0000
  S   S81       1.0  0.69587  0.40944  0.28549  1.0000
  S   S82       1.0  0.80413  0.90944  0.21450999999999998  1.0000
  S   S83       1.0  0.30413  0.59056  0.7145100000000001  1.0000
  S   S84       1.0  0.19587000000000002  0.09055999999999997  0.7854900000000001  1.0000
  S   S85       1.0  0.72735  0.52739  0.3850200000000001  1.0000
  S   S86       1.0  0.77265  0.027390000000000025  0.11497999999999997  1.0000
  S   S87       1.0  0.27264999999999995  0.47261  0.61498  1.0000
  S   S88       1.0  0.22734999999999994  0.9726100000000001  0.88502  1.0000
  S   S89       1.0  0.7531999999999999  0.64068  0.4791  1.0000
  S   S90       1.0  0.7468000000000001  0.14068000000000014  0.020899999999999978  1.0000
  S   S91       1.0  0.24680000000000013  0.35932  0.5208999999999999  1.0000
  S   S92       1.0  0.2531999999999998  0.85932  0.9791000000000001  1.0000
  S   S93       1.0  0.77979  0.7592  0.57866  1.0000
  S   S94       1.0  0.72021  0.2591999999999999  0.92134  1.0000
  S   S95       1.0  0.22021  0.24080000000000001  0.42134000000000005  1.0000
  S   S96       1.0  0.2797899999999999  0.7408  0.07865999999999995  1.0000
  S   S97       1.0  0.75369  0.53541  0.24487000000000003  1.0000
  S   S98       1.0  0.7463100000000001  0.035410000000000164  0.25513  1.0000
  S   S99       1.0  0.24631000000000008  0.46458999999999995  0.7551300000000001  1.0000
  S   S100      1.0  0.25368999999999997  0.96459  0.7448700000000001  1.0000
  S   S101      1.0  0.78219  0.65018  0.34956  1.0000
  S   S102      1.0  0.71781  0.15017999999999998  0.15044000000000002  1.0000
  S   S103      1.0  0.21781  0.3498200000000001  0.6504400000000001  1.0000
  S   S104      1.0  0.28218999999999994  0.84982  0.8495600000000001  1.0000
  S   S105      1.0  0.8098699999999999  0.77471  0.4451700000000001  1.0000
  S   S106      1.0  0.69013  0.27471  0.054829999999999934  1.0000
  S   S107      1.0  0.19013  0.22529  0.5548299999999999  1.0000
  S   S108      1.0  0.30987000000000015  0.72529  0.9451700000000002  1.0000
  S   S109      1.0  0.8078300000000002  0.66501  0.21056000000000005  1.0000
  S   S110      1.0  0.69217  0.1650100000000001  0.28944  1.0000
  S   S111      1.0  0.19216999999999995  0.33498999999999995  0.7894399999999999  1.0000
  S   S112      1.0  0.30783000000000005  0.83499  0.7105600000000001  1.0000
  S   S113      1.0  0.86653  0.78172  0.1723  1.0000
  S   S114      1.0  0.63347  0.28171999999999997  0.3277  1.0000
  S   S115      1.0  0.13347  0.21828000000000003  0.8277000000000001  1.0000
  S   S116      1.0  0.36653  0.71828  0.6723000000000001  1.0000
  S   S117      1.0  0.70377  0.78916  0.1763  1.0000
  S   S118      1.0  0.79623  0.28915999999999986  0.3237  1.0000
  S   S119      1.0  0.29623  0.21084000000000003  0.8237  1.0000
  S   S120      1.0  0.20377  0.71084  0.6763  1.0000
  S   S121      1.0  0.62103  0.74257  0.5871900000000001  1.0000
  S   S122      1.0  0.87897  0.24256999999999995  0.9128099999999999  1.0000
  S   S123      1.0  0.37897000000000003  0.25743000000000005  0.41280999999999995  1.0000
  S   S124      1.0  0.12102999999999997  0.75743  0.08719000000000011  1.0000
  S   S125      1.0  0.73047  0.62123  0.61905  1.0000
  S   S126      1.0  0.7695299999999999  0.12122999999999996  0.8809500000000001  1.0000
  S   S127      1.0  0.26953000000000005  0.37877000000000005  0.38095000000000007  1.0000
  S   S128      1.0  0.23046999999999995  0.8787700000000002  0.11905000000000011  1.0000
  S   S129      1.0  0.83561  0.78732  0.31078  1.0000
  S   S130      1.0  0.66439  0.28732  0.18922  1.0000
  S   S131      1.0  0.16439  0.21267999999999998  0.6892199999999999  1.0000
  S   S132      1.0  0.33560999999999996  0.71268  0.8107800000000001  1.0000
