data_image0
_chemical_formula_structural       Cd2Zn2Se8N8C8
_chemical_formula_sum              "Cd2 Zn2 Se8 N8 C8"
_cell_length_a       11.331
_cell_length_b       11.331
_cell_length_c       4.6314
_cell_angle_alpha    90.0
_cell_angle_beta     90.0
_cell_angle_gamma    90.0

_space_group_name_H-M_alt    "P 1"
_space_group_IT_number       1

loop_
  _space_group_symop_operation_xyz
  'x, y, z'

loop_
  _atom_site_type_symbol
  _atom_site_label
  _atom_site_symmetry_multiplicity
  _atom_site_fract_x
  _atom_site_fract_y
  _atom_site_fract_z
  _atom_site_occupancy
  Cd  Cd1       1.0  0.0  0.0  0.0  1.0000
  Cd  Cd2       1.0  0.5  0.5  0.5  1.0000
  Zn  Zn1       1.0  0.0  0.5  0.25  1.0000
  Zn  Zn2       1.0  0.5  0.0  0.75  1.0000
  Se  Se1       1.0  0.87787  0.15345  0.68275  1.0000
  Se  Se2       1.0  0.12212999999999999  0.84655  0.68275  1.0000
  Se  Se3       1.0  0.15345  0.12212999999999999  0.31724999999999987  1.0000
  Se  Se4       1.0  0.84655  0.87787  0.31724999999999987  1.0000
  Se  Se5       1.0  0.37787000000000004  0.65345  0.18275000000000005  1.0000
  Se  Se6       1.0  0.62213  0.34655  0.18275000000000005  1.0000
  Se  Se7       1.0  0.65345  0.62213  0.8172499999999999  1.0000
  Se  Se8       1.0  0.34655  0.37787000000000004  0.8172499999999999  1.0000
  N   N1        1.0  0.9550999999999998  0.3641  0.012999999999999996  1.0000
  N   N2        1.0  0.0449  0.6359  0.012999999999999996  1.0000
  N   N3        1.0  0.3641  0.0449  0.987  1.0000
  N   N4        1.0  0.6359  0.9550999999999998  0.987  1.0000
  N   N5        1.0  0.4551  0.8641  0.513  1.0000
  N   N6        1.0  0.5449  0.13590000000000002  0.513  1.0000
  N   N7        1.0  0.8641  0.5449  0.487  1.0000
  N   N8        1.0  0.13590000000000002  0.4551  0.487  1.0000
  C   C1        1.0  0.9263000000000001  0.282  0.888  1.0000
  C   C2        1.0  0.0737  0.718  0.888  1.0000
  C   C3        1.0  0.282  0.0737  0.11199999999999999  1.0000
  C   C4        1.0  0.718  0.9263000000000001  0.11199999999999999  1.0000
  C   C5        1.0  0.4263  0.782  0.388  1.0000
  C   C6        1.0  0.5737  0.21800000000000003  0.388  1.0000
  C   C7        1.0  0.782  0.5737  0.612  1.0000
  C   C8        1.0  0.21800000000000003  0.4263  0.612  1.0000
