data_image0
_chemical_formula_structural       Ca4Ga6O14
_chemical_formula_sum              "Ca4 Ga6 O14"
_cell_length_a       7.9386
_cell_length_b       7.9386
_cell_length_c       5.2641
_cell_angle_alpha    90.0
_cell_angle_beta     90.0
_cell_angle_gamma    90.0

_space_group_name_H-M_alt    "P 1"
_space_group_IT_number       1

loop_
  _space_group_symop_operation_xyz
  'x, y, z'

loop_
  _atom_site_type_symbol
  _atom_site_label
  _atom_site_symmetry_multiplicity
  _atom_site_fract_x
  _atom_site_fract_y
  _atom_site_fract_z
  _atom_site_occupancy
  Ca  Ca1       1.0  0.16037  0.66037  0.49479  0.5160
  Ca  Ca2       1.0  0.83963  0.33962999999999993  0.49479  0.5160
  Ca  Ca3       1.0  0.66037  0.83963  0.5052099999999999  0.5160
  Ca  Ca4       1.0  0.33962999999999993  0.16037  0.5052099999999999  0.5160
  Ga  Ga1       1.0  0.0  0.0  0.0  1.0000
  Ga  Ga2       1.0  0.49999999999999994  0.49999999999999994  0.0  1.0000
  Ga  Ga3       1.0  0.35699  0.8569899999999998  0.03432  1.0000
  Ga  Ga4       1.0  0.64301  0.14301000000000005  0.03432  1.0000
  Ga  Ga5       1.0  0.8569899999999998  0.64301  0.96568  1.0000
  Ga  Ga6       1.0  0.14301000000000005  0.35699  0.96568  1.0000
  O   O1        1.0  0.4999999999999999  0.0  0.1933  1.0000
  O   O2        1.0  0.0  0.49999999999999994  0.8067  1.0000
  O   O3        1.0  0.3602999999999999  0.8602999999999997  0.6929000000000001  1.0000
  O   O4        1.0  0.6396999999999999  0.13970000000000013  0.6929000000000001  1.0000
  O   O5        1.0  0.8602999999999997  0.6396999999999999  0.3071  1.0000
  O   O6        1.0  0.13970000000000013  0.3602999999999999  0.3071  1.0000
  O   O7        1.0  0.0869  0.16179999999999994  0.7939999999999999  1.0000
  O   O8        1.0  0.9130999999999999  0.8382  0.7939999999999999  1.0000
  O   O9        1.0  0.16179999999999994  0.9130999999999999  0.20600000000000004  1.0000
  O   O10       1.0  0.8382  0.0869  0.20600000000000004  1.0000
  O   O11       1.0  0.4131  0.6617999999999998  0.20600000000000004  1.0000
  O   O12       1.0  0.5869  0.3382  0.20600000000000004  1.0000
  O   O13       1.0  0.3382  0.4131  0.7939999999999999  1.0000
  O   O14       1.0  0.6617999999999998  0.5869  0.7939999999999999  1.0000
  La  La1       1.0  0.16037  0.66037  0.49479  0.4840
  La  La2       1.0  0.83963  0.33962999999999993  0.49479  0.4840
  La  La3       1.0  0.66037  0.83963  0.5052099999999999  0.4840
  La  La4       1.0  0.33962999999999993  0.16037  0.5052099999999999  0.4840
