data_image0
_chemical_formula_structural       Np4P16S48
_chemical_formula_sum              "Np4 P16 S48"
_cell_length_a       12.832
_cell_length_b       12.832
_cell_length_c       9.817
_cell_angle_alpha    90.0
_cell_angle_beta     90.0
_cell_angle_gamma    90.0

_space_group_name_H-M_alt    "P 1"
_space_group_IT_number       1

loop_
  _space_group_symop_operation_xyz
  'x, y, z'

loop_
  _atom_site_type_symbol
  _atom_site_label
  _atom_site_symmetry_multiplicity
  _atom_site_fract_x
  _atom_site_fract_y
  _atom_site_fract_z
  _atom_site_occupancy
  Np  Np1       1.0  0.0  0.24999999999999994  0.125  1.0000
  Np  Np2       1.0  0.49999999999999994  0.7499999999999999  0.625  1.0000
  Np  Np3       1.0  0.49999999999999994  0.24999999999999997  0.375  1.0000
  Np  Np4       1.0  0.0  0.7499999999999999  0.875  1.0000
  P   P1        1.0  0.99425  0.06652  0.38055000000000005  1.0000
  P   P2        1.0  0.50575  0.9334799999999999  0.88055  1.0000
  P   P3        1.0  0.6834799999999999  0.24425000000000005  0.6305500000000002  1.0000
  P   P4        1.0  0.81652  0.7557499999999999  0.13054999999999994  1.0000
  P   P5        1.0  0.49425  0.56652  0.88055  1.0000
  P   P6        1.0  0.005750000000000033  0.43348  0.38055000000000005  1.0000
  P   P7        1.0  0.18348  0.74425  0.13054999999999994  1.0000
  P   P8        1.0  0.31651999999999997  0.25575  0.6305500000000002  1.0000
  P   P9        1.0  0.005750000000000033  0.9334799999999999  0.61945  1.0000
  P   P10       1.0  0.49425  0.06652  0.11944999999999996  1.0000
  P   P11       1.0  0.31651999999999997  0.7557499999999999  0.36944999999999995  1.0000
  P   P12       1.0  0.18348  0.24425000000000005  0.8694500000000001  1.0000
  P   P13       1.0  0.50575  0.43348  0.11944999999999996  1.0000
  P   P14       1.0  0.99425  0.56652  0.61945  1.0000
  P   P15       1.0  0.81652  0.25575  0.8694500000000001  1.0000
  P   P16       1.0  0.6834799999999999  0.74425  0.36944999999999995  1.0000
  S   S1        1.0  0.16802999999999996  0.31628  0.6767300000000002  1.0000
  S   S2        1.0  0.33197  0.6837199999999999  0.17673000000000008  1.0000
  S   S3        1.0  0.43371999999999994  0.41802999999999996  0.9267300000000002  1.0000
  S   S4        1.0  0.06627999999999988  0.58197  0.4267300000000001  1.0000
  S   S5        1.0  0.66803  0.81628  0.17673000000000008  1.0000
  S   S6        1.0  0.8319699999999999  0.18371999999999997  0.6767300000000002  1.0000
  S   S7        1.0  0.9337199999999999  0.91803  0.4267300000000001  1.0000
  S   S8        1.0  0.56628  0.08197  0.9267300000000002  1.0000
  S   S9        1.0  0.8319699999999999  0.6837199999999999  0.32326999999999984  1.0000
  S   S10       1.0  0.66803  0.31628  0.82327  1.0000
  S   S11       1.0  0.56628  0.58197  0.07326999999999985  1.0000
  S   S12       1.0  0.9337199999999999  0.41802999999999996  0.5732699999999998  1.0000
  S   S13       1.0  0.33197  0.18371999999999997  0.82327  1.0000
  S   S14       1.0  0.16802999999999996  0.81628  0.32326999999999984  1.0000
  S   S15       1.0  0.06627999999999988  0.08197  0.5732699999999998  1.0000
  S   S16       1.0  0.43371999999999994  0.91803  0.07326999999999985  1.0000
  S   S17       1.0  0.9193499999999999  0.8689899999999998  0.09735000000000002  1.0000
  S   S18       1.0  0.5806500000000001  0.13101000000000007  0.59735  1.0000
  S   S19       1.0  0.8810100000000001  0.1693499999999999  0.3473500000000001  1.0000
  S   S20       1.0  0.6189899999999999  0.83065  0.84735  1.0000
  S   S21       1.0  0.41934999999999983  0.36898999999999993  0.59735  1.0000
  S   S22       1.0  0.08065000000000011  0.6310100000000001  0.09735000000000002  1.0000
  S   S23       1.0  0.38101  0.6693499999999999  0.84735  1.0000
  S   S24       1.0  0.11898999999999992  0.3306500000000001  0.3473500000000001  1.0000
  S   S25       1.0  0.08065000000000011  0.13101000000000007  0.9026500000000001  1.0000
  S   S26       1.0  0.41934999999999983  0.8689899999999998  0.40264999999999995  1.0000
  S   S27       1.0  0.11898999999999992  0.83065  0.6526500000000001  1.0000
  S   S28       1.0  0.38101  0.1693499999999999  0.15264999999999998  1.0000
  S   S29       1.0  0.5806500000000001  0.6310100000000001  0.40264999999999995  1.0000
  S   S30       1.0  0.9193499999999999  0.36898999999999993  0.9026500000000001  1.0000
  S   S31       1.0  0.6189899999999999  0.3306500000000001  0.15264999999999998  1.0000
  S   S32       1.0  0.8810100000000001  0.6693499999999999  0.6526500000000001  1.0000
  S   S33       1.0  0.09484999999999998  0.06922  0.22559000000000004  1.0000
  S   S34       1.0  0.40514999999999995  0.9307799999999998  0.7255900000000001  1.0000
  S   S35       1.0  0.6807799999999998  0.34485  0.47559000000000007  1.0000
  S   S36       1.0  0.81922  0.6551499999999999  0.9755900000000002  1.0000
  S   S37       1.0  0.59485  0.5692200000000001  0.7255900000000001  1.0000
  S   S38       1.0  0.9051499999999999  0.43078  0.22559000000000004  1.0000
  S   S39       1.0  0.18078  0.84485  0.9755900000000002  1.0000
  S   S40       1.0  0.31921999999999995  0.15515  0.47559000000000007  1.0000
  S   S41       1.0  0.9051499999999999  0.9307799999999998  0.77441  1.0000
  S   S42       1.0  0.59485  0.06922  0.27440999999999993  1.0000
  S   S43       1.0  0.31921999999999995  0.6551499999999999  0.52441  1.0000
  S   S44       1.0  0.18078  0.34485  0.024409999999999963  1.0000
  S   S45       1.0  0.40514999999999995  0.43078  0.27440999999999993  1.0000
  S   S46       1.0  0.09484999999999998  0.5692200000000001  0.77441  1.0000
  S   S47       1.0  0.81922  0.15515  0.024409999999999963  1.0000
  S   S48       1.0  0.6807799999999998  0.84485  0.52441  1.0000
