data_image0
_chemical_formula_structural       Sr64O144B48Li16
_chemical_formula_sum              "Sr64 O144 B48 Li16"
_cell_length_a       14.95066
_cell_length_b       14.95066
_cell_length_c       14.95066
_cell_angle_alpha    90.0
_cell_angle_beta     90.0
_cell_angle_gamma    90.0

_space_group_name_H-M_alt    "P 1"
_space_group_IT_number       1

loop_
  _space_group_symop_operation_xyz
  'x, y, z'

loop_
  _atom_site_type_symbol
  _atom_site_label
  _atom_site_symmetry_multiplicity
  _atom_site_fract_x
  _atom_site_fract_y
  _atom_site_fract_z
  _atom_site_occupancy
  Sr  Sr1       1.0  0.0  0.0  0.0  1.0000
  Sr  Sr2       1.0  0.5  0.5  0.0  1.0000
  Sr  Sr3       1.0  0.0  0.5  0.5  1.0000
  Sr  Sr4       1.0  0.5  0.0  0.5  1.0000
  Sr  Sr5       1.0  0.25  0.25  0.25  1.0000
  Sr  Sr6       1.0  0.75  0.75  0.25  1.0000
  Sr  Sr7       1.0  0.75  0.25  0.75  1.0000
  Sr  Sr8       1.0  0.25  0.75  0.75  1.0000
  Sr  Sr9       1.0  0.75  0.75  0.75  1.0000
  Sr  Sr10      1.0  0.25  0.25  0.75  1.0000
  Sr  Sr11      1.0  0.25  0.75  0.25  1.0000
  Sr  Sr12      1.0  0.75  0.25  0.25  1.0000
  Sr  Sr13      1.0  0.5  0.5  0.5  1.0000
  Sr  Sr14      1.0  0.0  0.0  0.5  1.0000
  Sr  Sr15      1.0  0.5  0.0  0.0  1.0000
  Sr  Sr16      1.0  0.0  0.5  0.0  1.0000
  Sr  Sr17      1.0  0.0  0.25  0.00242  1.0000
  Sr  Sr18      1.0  0.5  0.25  0.99758  1.0000
  Sr  Sr19      1.0  0.0  0.75  0.49758  1.0000
  Sr  Sr20      1.0  0.5  0.75  0.50242  1.0000
  Sr  Sr21      1.0  0.25  0.00242  0.0  1.0000
  Sr  Sr22      1.0  0.25  0.99758  0.5  1.0000
  Sr  Sr23      1.0  0.75  0.49758  0.0  1.0000
  Sr  Sr24      1.0  0.75  0.50242  0.5  1.0000
  Sr  Sr25      1.0  0.00242  0.0  0.25  1.0000
  Sr  Sr26      1.0  0.99758  0.5  0.25  1.0000
  Sr  Sr27      1.0  0.49758  0.0  0.75  1.0000
  Sr  Sr28      1.0  0.50242  0.5  0.75  1.0000
  Sr  Sr29      1.0  0.5  0.25  0.25242  1.0000
  Sr  Sr30      1.0  0.5  0.75  0.24758  1.0000
  Sr  Sr31      1.0  0.0  0.25  0.74758  1.0000
  Sr  Sr32      1.0  0.0  0.75  0.75242  1.0000
  Sr  Sr33      1.0  0.25242  0.5  0.25  1.0000
  Sr  Sr34      1.0  0.24758  0.5  0.75  1.0000
  Sr  Sr35      1.0  0.74758  0.0  0.25  1.0000
  Sr  Sr36      1.0  0.75242  0.0  0.75  1.0000
  Sr  Sr37      1.0  0.25  0.25242  0.5  1.0000
  Sr  Sr38      1.0  0.75  0.24758  0.5  1.0000
  Sr  Sr39      1.0  0.25  0.74758  0.0  1.0000
  Sr  Sr40      1.0  0.75  0.75242  0.0  1.0000
  Sr  Sr41      1.0  0.0  0.75  0.99758  1.0000
  Sr  Sr42      1.0  0.5  0.75  0.00242  1.0000
  Sr  Sr43      1.0  0.0  0.25  0.50242  1.0000
  Sr  Sr44      1.0  0.5  0.25  0.49758  1.0000
  Sr  Sr45      1.0  0.75  0.99758  0.0  1.0000
  Sr  Sr46      1.0  0.75  0.00242  0.5  1.0000
  Sr  Sr47      1.0  0.25  0.50242  0.0  1.0000
  Sr  Sr48      1.0  0.25  0.49758  0.5  1.0000
  Sr  Sr49      1.0  0.99758  0.0  0.75  1.0000
  Sr  Sr50      1.0  0.00242  0.5  0.75  1.0000
  Sr  Sr51      1.0  0.50242  0.0  0.25  1.0000
  Sr  Sr52      1.0  0.49758  0.5  0.25  1.0000
  Sr  Sr53      1.0  0.5  0.75  0.74758  1.0000
  Sr  Sr54      1.0  0.5  0.25  0.75242  1.0000
  Sr  Sr55      1.0  0.0  0.75  0.25242  1.0000
  Sr  Sr56      1.0  0.0  0.25  0.24758  1.0000
  Sr  Sr57      1.0  0.74758  0.5  0.75  1.0000
  Sr  Sr58      1.0  0.75242  0.5  0.25  1.0000
  Sr  Sr59      1.0  0.25242  0.0  0.75  1.0000
  Sr  Sr60      1.0  0.24758  0.0  0.25  1.0000
  Sr  Sr61      1.0  0.75  0.74758  0.5  1.0000
  Sr  Sr62      1.0  0.25  0.75242  0.5  1.0000
  Sr  Sr63      1.0  0.75  0.25242  0.0  1.0000
  Sr  Sr64      1.0  0.25  0.24758  0.0  1.0000
  O   O1        1.0  0.1335  0.2713999999999999  0.1286  1.0000
  O   O2        1.0  0.6335  0.22860000000000008  0.8714  1.0000
  O   O3        1.0  0.8664999999999999  0.7713999999999999  0.37139999999999995  1.0000
  O   O4        1.0  0.3665  0.7286000000000001  0.6286  1.0000
  O   O5        1.0  0.2713999999999999  0.1286  0.1335  1.0000
  O   O6        1.0  0.22860000000000008  0.8714  0.6335  1.0000
  O   O7        1.0  0.7713999999999999  0.37139999999999995  0.8664999999999999  1.0000
  O   O8        1.0  0.7286000000000001  0.6286  0.3665  1.0000
  O   O9        1.0  0.1286  0.1335  0.2713999999999999  1.0000
  O   O10       1.0  0.8714  0.6335  0.22860000000000008  1.0000
  O   O11       1.0  0.37139999999999995  0.8664999999999999  0.7713999999999999  1.0000
  O   O12       1.0  0.6286  0.3665  0.7286000000000001  1.0000
  O   O13       1.0  0.5213999999999999  0.3835  0.3786  1.0000
  O   O14       1.0  0.4786  0.8835  0.12140000000000001  1.0000
  O   O15       1.0  0.021399999999999864  0.11649999999999999  0.6214  1.0000
  O   O16       1.0  0.9786000000000001  0.6164999999999999  0.8786  1.0000
  O   O17       1.0  0.3786  0.5213999999999999  0.3835  1.0000
  O   O18       1.0  0.12140000000000001  0.4786  0.8835  1.0000
  O   O19       1.0  0.6214  0.021399999999999864  0.11649999999999999  1.0000
  O   O20       1.0  0.8786  0.9786000000000001  0.6164999999999999  1.0000
  O   O21       1.0  0.3835  0.3786  0.5213999999999999  1.0000
  O   O22       1.0  0.8835  0.12140000000000001  0.4786  1.0000
  O   O23       1.0  0.11649999999999999  0.6214  0.021399999999999864  1.0000
  O   O24       1.0  0.6164999999999999  0.8786  0.9786000000000001  1.0000
  O   O25       1.0  0.8664999999999999  0.7286000000000001  0.8714  1.0000
  O   O26       1.0  0.3665  0.7713999999999999  0.1286  1.0000
  O   O27       1.0  0.1335  0.22860000000000008  0.6286  1.0000
  O   O28       1.0  0.6335  0.2713999999999999  0.37139999999999995  1.0000
  O   O29       1.0  0.7286000000000001  0.8714  0.8664999999999999  1.0000
  O   O30       1.0  0.7713999999999999  0.1286  0.3665  1.0000
  O   O31       1.0  0.22860000000000008  0.6286  0.1335  1.0000
  O   O32       1.0  0.2713999999999999  0.37139999999999995  0.6335  1.0000
  O   O33       1.0  0.8714  0.8664999999999999  0.7286000000000001  1.0000
  O   O34       1.0  0.1286  0.3665  0.7713999999999999  1.0000
  O   O35       1.0  0.6286  0.1335  0.22860000000000008  1.0000
  O   O36       1.0  0.37139999999999995  0.6335  0.2713999999999999  1.0000
  O   O37       1.0  0.4786  0.6164999999999999  0.6214  1.0000
  O   O38       1.0  0.5213999999999999  0.11649999999999999  0.8786  1.0000
  O   O39       1.0  0.9786000000000001  0.8835  0.3786  1.0000
  O   O40       1.0  0.021399999999999864  0.3835  0.12140000000000001  1.0000
  O   O41       1.0  0.6214  0.4786  0.6164999999999999  1.0000
  O   O42       1.0  0.8786  0.5213999999999999  0.11649999999999999  1.0000
  O   O43       1.0  0.3786  0.9786000000000001  0.8835  1.0000
  O   O44       1.0  0.12140000000000001  0.021399999999999864  0.3835  1.0000
  O   O45       1.0  0.6164999999999999  0.6214  0.4786  1.0000
  O   O46       1.0  0.11649999999999999  0.8786  0.5213999999999999  1.0000
  O   O47       1.0  0.8835  0.3786  0.9786000000000001  1.0000
  O   O48       1.0  0.3835  0.12140000000000001  0.021399999999999864  1.0000
  O   O49       1.0  0.6335  0.7713999999999999  0.6286  1.0000
  O   O50       1.0  0.1335  0.7286000000000001  0.37139999999999995  1.0000
  O   O51       1.0  0.3665  0.2713999999999999  0.8714  1.0000
  O   O52       1.0  0.8664999999999999  0.22860000000000008  0.1286  1.0000
  O   O53       1.0  0.7713999999999999  0.6286  0.6335  1.0000
  O   O54       1.0  0.7286000000000001  0.37139999999999995  0.1335  1.0000
  O   O55       1.0  0.2713999999999999  0.8714  0.3665  1.0000
  O   O56       1.0  0.22860000000000008  0.1286  0.8664999999999999  1.0000
  O   O57       1.0  0.6286  0.6335  0.7713999999999999  1.0000
  O   O58       1.0  0.37139999999999995  0.1335  0.7286000000000001  1.0000
  O   O59       1.0  0.8714  0.3665  0.2713999999999999  1.0000
  O   O60       1.0  0.1286  0.8664999999999999  0.22860000000000008  1.0000
  O   O61       1.0  0.021399999999999864  0.8835  0.8786  1.0000
  O   O62       1.0  0.9786000000000001  0.3835  0.6214  1.0000
  O   O63       1.0  0.5213999999999999  0.6164999999999999  0.12140000000000001  1.0000
  O   O64       1.0  0.4786  0.11649999999999999  0.3786  1.0000
  O   O65       1.0  0.8786  0.021399999999999864  0.8835  1.0000
  O   O66       1.0  0.6214  0.9786000000000001  0.3835  1.0000
  O   O67       1.0  0.12140000000000001  0.5213999999999999  0.6164999999999999  1.0000
  O   O68       1.0  0.3786  0.4786  0.11649999999999999  1.0000
  O   O69       1.0  0.8835  0.8786  0.021399999999999864  1.0000
  O   O70       1.0  0.3835  0.6214  0.9786000000000001  1.0000
  O   O71       1.0  0.6164999999999999  0.12140000000000001  0.5213999999999999  1.0000
  O   O72       1.0  0.11649999999999999  0.3786  0.4786  1.0000
  O   O73       1.0  0.3665  0.22860000000000008  0.37139999999999995  1.0000
  O   O74       1.0  0.8664999999999999  0.2713999999999999  0.6286  1.0000
  O   O75       1.0  0.6335  0.7286000000000001  0.1286  1.0000
  O   O76       1.0  0.1335  0.7713999999999999  0.8714  1.0000
  O   O77       1.0  0.22860000000000008  0.37139999999999995  0.3665  1.0000
  O   O78       1.0  0.2713999999999999  0.6286  0.8664999999999999  1.0000
  O   O79       1.0  0.7286000000000001  0.1286  0.6335  1.0000
  O   O80       1.0  0.7713999999999999  0.8714  0.1335  1.0000
  O   O81       1.0  0.37139999999999995  0.3665  0.22860000000000008  1.0000
  O   O82       1.0  0.6286  0.8664999999999999  0.2713999999999999  1.0000
  O   O83       1.0  0.1286  0.6335  0.7286000000000001  1.0000
  O   O84       1.0  0.8714  0.1335  0.7713999999999999  1.0000
  O   O85       1.0  0.9786000000000001  0.11649999999999999  0.12140000000000001  1.0000
  O   O86       1.0  0.021399999999999864  0.6164999999999999  0.3786  1.0000
  O   O87       1.0  0.4786  0.3835  0.8786  1.0000
  O   O88       1.0  0.5213999999999999  0.8835  0.6214  1.0000
  O   O89       1.0  0.12140000000000001  0.9786000000000001  0.11649999999999999  1.0000
  O   O90       1.0  0.3786  0.021399999999999864  0.6164999999999999  1.0000
  O   O91       1.0  0.8786  0.4786  0.3835  1.0000
  O   O92       1.0  0.6214  0.5213999999999999  0.8835  1.0000
  O   O93       1.0  0.11649999999999999  0.12140000000000001  0.9786000000000001  1.0000
  O   O94       1.0  0.6164999999999999  0.3786  0.021399999999999864  1.0000
  O   O95       1.0  0.3835  0.8786  0.4786  1.0000
  O   O96       1.0  0.8835  0.6214  0.5213999999999999  1.0000
  O   O97       1.0  0.1769  0.4269  0.125  1.0000
  O   O98       1.0  0.6769000000000001  0.07309999999999998  0.875  1.0000
  O   O99       1.0  0.8230999999999999  0.9269000000000001  0.375  1.0000
  O   O100      1.0  0.3231  0.5730999999999999  0.625  1.0000
  O   O101      1.0  0.4269  0.125  0.1769  1.0000
  O   O102      1.0  0.07309999999999998  0.875  0.6769000000000001  1.0000
  O   O103      1.0  0.9269000000000001  0.375  0.8230999999999999  1.0000
  O   O104      1.0  0.5730999999999999  0.625  0.3231  1.0000
  O   O105      1.0  0.125  0.1769  0.4269  1.0000
  O   O106      1.0  0.875  0.6769000000000001  0.07309999999999998  1.0000
  O   O107      1.0  0.375  0.8230999999999999  0.9269000000000001  1.0000
  O   O108      1.0  0.625  0.3231  0.5730999999999999  1.0000
  O   O109      1.0  0.6769000000000001  0.4269  0.375  1.0000
  O   O110      1.0  0.3231  0.9269000000000001  0.125  1.0000
  O   O111      1.0  0.17690000000000006  0.07309999999999998  0.625  1.0000
  O   O112      1.0  0.8230999999999999  0.5730999999999999  0.875  1.0000
  O   O113      1.0  0.375  0.6769000000000001  0.4269  1.0000
  O   O114      1.0  0.125  0.3231  0.9269000000000001  1.0000
  O   O115      1.0  0.625  0.17690000000000006  0.07309999999999998  1.0000
  O   O116      1.0  0.875  0.8230999999999999  0.5730999999999999  1.0000
  O   O117      1.0  0.4269  0.375  0.6769000000000001  1.0000
  O   O118      1.0  0.9269000000000001  0.125  0.3231  1.0000
  O   O119      1.0  0.07309999999999998  0.625  0.17690000000000006  1.0000
  O   O120      1.0  0.5730999999999999  0.875  0.8230999999999999  1.0000
  O   O121      1.0  0.6769000000000001  0.9269000000000001  0.625  1.0000
  O   O122      1.0  0.1769  0.5730999999999999  0.375  1.0000
  O   O123      1.0  0.3231  0.4269  0.875  1.0000
  O   O124      1.0  0.8230999999999999  0.07309999999999998  0.125  1.0000
  O   O125      1.0  0.9269000000000001  0.625  0.6769000000000001  1.0000
  O   O126      1.0  0.5730999999999999  0.375  0.1769  1.0000
  O   O127      1.0  0.4269  0.875  0.3231  1.0000
  O   O128      1.0  0.07309999999999998  0.125  0.8230999999999999  1.0000
  O   O129      1.0  0.625  0.6769000000000001  0.9269000000000001  1.0000
  O   O130      1.0  0.375  0.1769  0.5730999999999999  1.0000
  O   O131      1.0  0.875  0.3231  0.4269  1.0000
  O   O132      1.0  0.125  0.8230999999999999  0.07309999999999998  1.0000
  O   O133      1.0  0.17690000000000006  0.9269000000000001  0.875  1.0000
  O   O134      1.0  0.8230999999999999  0.4269  0.625  1.0000
  O   O135      1.0  0.6769000000000001  0.5730999999999999  0.125  1.0000
  O   O136      1.0  0.3231  0.07309999999999998  0.375  1.0000
  O   O137      1.0  0.875  0.17690000000000006  0.9269000000000001  1.0000
  O   O138      1.0  0.625  0.8230999999999999  0.4269  1.0000
  O   O139      1.0  0.125  0.6769000000000001  0.5730999999999999  1.0000
  O   O140      1.0  0.375  0.3231  0.07309999999999998  1.0000
  O   O141      1.0  0.9269000000000001  0.875  0.17690000000000006  1.0000
  O   O142      1.0  0.4269  0.625  0.8230999999999999  1.0000
  O   O143      1.0  0.5730999999999999  0.125  0.6769000000000001  1.0000
  O   O144      1.0  0.07309999999999998  0.375  0.3231  1.0000
  B   B1        1.0  0.1086  0.3586  0.125  1.0000
  B   B2        1.0  0.6086  0.14140000000000003  0.875  1.0000
  B   B3        1.0  0.8914  0.8586  0.375  1.0000
  B   B4        1.0  0.39139999999999997  0.6414  0.625  1.0000
  B   B5        1.0  0.3586  0.125  0.1086  1.0000
  B   B6        1.0  0.14140000000000003  0.875  0.6086  1.0000
  B   B7        1.0  0.8586  0.375  0.8914  1.0000
  B   B8        1.0  0.6414  0.625  0.39139999999999997  1.0000
  B   B9        1.0  0.125  0.1086  0.3586  1.0000
  B   B10       1.0  0.875  0.6086  0.14140000000000003  1.0000
  B   B11       1.0  0.375  0.8914  0.8586  1.0000
  B   B12       1.0  0.625  0.39139999999999997  0.6414  1.0000
  B   B13       1.0  0.6086  0.35860000000000003  0.375  1.0000
  B   B14       1.0  0.3914  0.8586  0.125  1.0000
  B   B15       1.0  0.10860000000000003  0.1414  0.625  1.0000
  B   B16       1.0  0.8914  0.6414  0.875  1.0000
  B   B17       1.0  0.375  0.6086  0.35860000000000003  1.0000
  B   B18       1.0  0.125  0.3914  0.8586  1.0000
  B   B19       1.0  0.625  0.10860000000000003  0.1414  1.0000
  B   B20       1.0  0.875  0.8914  0.6414  1.0000
  B   B21       1.0  0.35860000000000003  0.375  0.6086  1.0000
  B   B22       1.0  0.8586  0.125  0.3914  1.0000
  B   B23       1.0  0.1414  0.625  0.10860000000000003  1.0000
  B   B24       1.0  0.6414  0.875  0.8914  1.0000
  B   B25       1.0  0.6086  0.8586  0.625  1.0000
  B   B26       1.0  0.1086  0.6414  0.375  1.0000
  B   B27       1.0  0.39139999999999997  0.3586  0.875  1.0000
  B   B28       1.0  0.8914  0.14140000000000003  0.125  1.0000
  B   B29       1.0  0.8586  0.625  0.6086  1.0000
  B   B30       1.0  0.6414  0.375  0.1086  1.0000
  B   B31       1.0  0.3586  0.875  0.39139999999999997  1.0000
  B   B32       1.0  0.14140000000000003  0.125  0.8914  1.0000
  B   B33       1.0  0.625  0.6086  0.8586  1.0000
  B   B34       1.0  0.375  0.1086  0.6414  1.0000
  B   B35       1.0  0.875  0.39139999999999997  0.3586  1.0000
  B   B36       1.0  0.125  0.8914  0.14140000000000003  1.0000
  B   B37       1.0  0.10860000000000003  0.8586  0.875  1.0000
  B   B38       1.0  0.8914  0.35860000000000003  0.625  1.0000
  B   B39       1.0  0.6086  0.6414  0.125  1.0000
  B   B40       1.0  0.3914  0.1414  0.375  1.0000
  B   B41       1.0  0.875  0.10860000000000003  0.8586  1.0000
  B   B42       1.0  0.625  0.8914  0.35860000000000003  1.0000
  B   B43       1.0  0.125  0.6086  0.6414  1.0000
  B   B44       1.0  0.375  0.3914  0.1414  1.0000
  B   B45       1.0  0.8586  0.875  0.10860000000000003  1.0000
  B   B46       1.0  0.35860000000000003  0.625  0.8914  1.0000
  B   B47       1.0  0.6414  0.125  0.6086  1.0000
  B   B48       1.0  0.1414  0.375  0.3914  1.0000
  Li  Li1       1.0  0.125  0.125  0.125  1.0000
  Li  Li2       1.0  0.625  0.375  0.875  1.0000
  Li  Li3       1.0  0.875  0.625  0.375  1.0000
  Li  Li4       1.0  0.375  0.875  0.625  1.0000
  Li  Li5       1.0  0.375  0.375  0.375  1.0000
  Li  Li6       1.0  0.625  0.875  0.125  1.0000
  Li  Li7       1.0  0.875  0.125  0.625  1.0000
  Li  Li8       1.0  0.125  0.625  0.875  1.0000
  Li  Li9       1.0  0.875  0.875  0.875  1.0000
  Li  Li10      1.0  0.375  0.625  0.125  1.0000
  Li  Li11      1.0  0.125  0.375  0.625  1.0000
  Li  Li12      1.0  0.625  0.125  0.375  1.0000
  Li  Li13      1.0  0.625  0.625  0.625  1.0000
  Li  Li14      1.0  0.375  0.125  0.875  1.0000
  Li  Li15      1.0  0.125  0.875  0.375  1.0000
  Li  Li16      1.0  0.875  0.375  0.125  1.0000
