data_image0
_chemical_formula_structural       S56O112
_chemical_formula_sum              "S56 O112"
_cell_length_a       12.4802
_cell_length_b       21.0374
_cell_length_c       13.4698
_cell_angle_alpha    90.0
_cell_angle_beta     90.0
_cell_angle_gamma    90.0

_space_group_name_H-M_alt    "P 1"
_space_group_IT_number       1

loop_
  _space_group_symop_operation_xyz
  'x, y, z'

loop_
  _atom_site_type_symbol
  _atom_site_label
  _atom_site_symmetry_multiplicity
  _atom_site_fract_x
  _atom_site_fract_y
  _atom_site_fract_z
  _atom_site_occupancy
  S   S1        1.0  0.37670000000000003  0.0718  0.129  1.0000
  S   S2        1.0  0.6233000000000001  0.0718  0.129  1.0000
  S   S3        1.0  0.37670000000000003  0.9282  0.129  1.0000
  S   S4        1.0  0.6233000000000001  0.9282  0.129  1.0000
  S   S5        1.0  0.37670000000000003  0.5718  0.629  1.0000
  S   S6        1.0  0.6233000000000001  0.5718  0.629  1.0000
  S   S7        1.0  0.37670000000000003  0.4282000000000001  0.629  1.0000
  S   S8        1.0  0.6233000000000001  0.4282000000000001  0.629  1.0000
  S   S9        1.0  0.20730000000000004  0.1547  0.19849999999999998  1.0000
  S   S10       1.0  0.7927  0.1547  0.19849999999999998  1.0000
  S   S11       1.0  0.20730000000000004  0.8452999999999999  0.19849999999999998  1.0000
  S   S12       1.0  0.7927  0.8452999999999999  0.19849999999999998  1.0000
  S   S13       1.0  0.20730000000000004  0.6547000000000001  0.6985  1.0000
  S   S14       1.0  0.7927  0.6547000000000001  0.6985  1.0000
  S   S15       1.0  0.20730000000000004  0.3453  0.6985  1.0000
  S   S16       1.0  0.7927  0.3453  0.6985  1.0000
  S   S17       1.0  0.1277  0.2844  0.119  1.0000
  S   S18       1.0  0.8723  0.2844  0.119  1.0000
  S   S19       1.0  0.1277  0.7156  0.119  1.0000
  S   S20       1.0  0.8723  0.7156  0.119  1.0000
  S   S21       1.0  0.1277  0.7844  0.619  1.0000
  S   S22       1.0  0.8723  0.7844  0.619  1.0000
  S   S23       1.0  0.1277  0.2156  0.619  1.0000
  S   S24       1.0  0.8723  0.2156  0.619  1.0000
  S   S25       1.0  0.0  0.0763  0.1339  1.0000
  S   S26       1.0  0.0  0.9237000000000001  0.1339  1.0000
  S   S27       1.0  0.0  0.5763  0.6339  1.0000
  S   S28       1.0  0.0  0.42369999999999997  0.6339  1.0000
  S   S29       1.0  0.37840000000000007  0.4262000000000001  0.394  1.0000
  S   S30       1.0  0.6216  0.4262000000000001  0.394  1.0000
  S   S31       1.0  0.37840000000000007  0.5737999999999999  0.394  1.0000
  S   S32       1.0  0.6216  0.5737999999999999  0.394  1.0000
  S   S33       1.0  0.37840000000000007  0.9262000000000001  0.894  1.0000
  S   S34       1.0  0.6216  0.9262000000000001  0.894  1.0000
  S   S35       1.0  0.37840000000000007  0.07379999999999992  0.894  1.0000
  S   S36       1.0  0.6216  0.07379999999999992  0.894  1.0000
  S   S37       1.0  0.1913  0.35710000000000003  0.3087999999999999  1.0000
  S   S38       1.0  0.8087000000000001  0.35710000000000003  0.3087999999999999  1.0000
  S   S39       1.0  0.1913  0.6429  0.3087999999999999  1.0000
  S   S40       1.0  0.8087000000000001  0.6429  0.3087999999999999  1.0000
  S   S41       1.0  0.1913  0.8571  0.8088  1.0000
  S   S42       1.0  0.8087000000000001  0.8571  0.8088  1.0000
  S   S43       1.0  0.1913  0.14289999999999997  0.8088  1.0000
  S   S44       1.0  0.8087000000000001  0.14289999999999997  0.8088  1.0000
  S   S45       1.0  0.1288  0.21830000000000002  0.3897  1.0000
  S   S46       1.0  0.8712000000000001  0.21830000000000002  0.3897  1.0000
  S   S47       1.0  0.1288  0.7817  0.3897  1.0000
  S   S48       1.0  0.8712000000000001  0.7817  0.3897  1.0000
  S   S49       1.0  0.1288  0.7183  0.8896999999999999  1.0000
  S   S50       1.0  0.8712000000000001  0.7183  0.8896999999999999  1.0000
  S   S51       1.0  0.1288  0.28169999999999995  0.8896999999999999  1.0000
  S   S52       1.0  0.8712000000000001  0.28169999999999995  0.8896999999999999  1.0000
  S   S53       1.0  0.0  0.4252  0.3984  1.0000
  S   S54       1.0  0.0  0.5748  0.3984  1.0000
  S   S55       1.0  0.0  0.9252  0.8984  1.0000
  S   S56       1.0  0.0  0.07479999999999998  0.8984  1.0000
  O   O1        1.0  0.0988  0.1165  0.176  1.0000
  O   O2        1.0  0.9012000000000001  0.1165  0.176  1.0000
  O   O3        1.0  0.0988  0.8835000000000001  0.176  1.0000
  O   O4        1.0  0.9012000000000001  0.8835000000000001  0.176  1.0000
  O   O5        1.0  0.0988  0.6165  0.6759999999999999  1.0000
  O   O6        1.0  0.9012000000000001  0.6165  0.6759999999999999  1.0000
  O   O7        1.0  0.0988  0.3835  0.6759999999999999  1.0000
  O   O8        1.0  0.9012000000000001  0.3835  0.6759999999999999  1.0000
  O   O9        1.0  0.0  0.0  0.144  1.0000
  O   O10       1.0  0.0  0.5  0.644  1.0000
  O   O11       1.0  0.0  0.0918  0.0168  1.0000
  O   O12       1.0  0.0  0.9082  0.0168  1.0000
  O   O13       1.0  0.0  0.5918  0.5168  1.0000
  O   O14       1.0  0.0  0.4082  0.5168  1.0000
  O   O15       1.0  0.5  0.091  0.146  1.0000
  O   O16       1.0  0.5  0.909  0.146  1.0000
  O   O17       1.0  0.5  0.591  0.646  1.0000
  O   O18       1.0  0.5  0.40900000000000003  0.646  1.0000
  O   O19       1.0  0.3519  0.08800000000000001  0.011599999999999996  1.0000
  O   O20       1.0  0.6481  0.08800000000000001  0.011599999999999996  1.0000
  O   O21       1.0  0.3519  0.9120000000000001  0.011599999999999996  1.0000
  O   O22       1.0  0.6481  0.9120000000000001  0.011599999999999996  1.0000
  O   O23       1.0  0.3519  0.588  0.5115999999999999  1.0000
  O   O24       1.0  0.6481  0.588  0.5115999999999999  1.0000
  O   O25       1.0  0.3519  0.41200000000000003  0.5115999999999999  1.0000
  O   O26       1.0  0.6481  0.41200000000000003  0.5115999999999999  1.0000
  O   O27       1.0  0.3291000000000001  0.133  0.1821  1.0000
  O   O28       1.0  0.6708999999999999  0.133  0.1821  1.0000
  O   O29       1.0  0.3291000000000001  0.8670000000000001  0.1821  1.0000
  O   O30       1.0  0.6708999999999999  0.8670000000000001  0.1821  1.0000
  O   O31       1.0  0.3291000000000001  0.633  0.6820999999999999  1.0000
  O   O32       1.0  0.6708999999999999  0.633  0.6820999999999999  1.0000
  O   O33       1.0  0.3291000000000001  0.367  0.6820999999999999  1.0000
  O   O34       1.0  0.6708999999999999  0.367  0.6820999999999999  1.0000
  O   O35       1.0  0.34300000000000014  0.0  0.15799999999999995  1.0000
  O   O36       1.0  0.657  0.0  0.15799999999999995  1.0000
  O   O37       1.0  0.34300000000000014  0.5  0.6579999999999999  1.0000
  O   O38       1.0  0.657  0.5  0.6579999999999999  1.0000
  O   O39       1.0  0.1948  0.21990000000000004  0.139  1.0000
  O   O40       1.0  0.8052000000000001  0.21990000000000004  0.139  1.0000
  O   O41       1.0  0.1948  0.7801  0.139  1.0000
  O   O42       1.0  0.8052000000000001  0.7801  0.139  1.0000
  O   O43       1.0  0.1948  0.7199  0.639  1.0000
  O   O44       1.0  0.8052000000000001  0.7199  0.639  1.0000
  O   O45       1.0  0.1948  0.28009999999999996  0.639  1.0000
  O   O46       1.0  0.8052000000000001  0.28009999999999996  0.639  1.0000
  O   O47       1.0  0.193  0.1713  0.3158  1.0000
  O   O48       1.0  0.807  0.1713  0.3158  1.0000
  O   O49       1.0  0.193  0.8287  0.3158  1.0000
  O   O50       1.0  0.807  0.8287  0.3158  1.0000
  O   O51       1.0  0.193  0.6713  0.8158  1.0000
  O   O52       1.0  0.807  0.6713  0.8158  1.0000
  O   O53       1.0  0.193  0.3287  0.8158  1.0000
  O   O54       1.0  0.807  0.3287  0.8158  1.0000
  O   O55       1.0  0.1551  0.2995  0.004  1.0000
  O   O56       1.0  0.8449  0.2995  0.004  1.0000
  O   O57       1.0  0.1551  0.7005  0.004  1.0000
  O   O58       1.0  0.8449  0.7005  0.004  1.0000
  O   O59       1.0  0.1551  0.7995000000000001  0.504  1.0000
  O   O60       1.0  0.8449  0.7995000000000001  0.504  1.0000
  O   O61       1.0  0.1551  0.20050000000000004  0.504  1.0000
  O   O62       1.0  0.8449  0.20050000000000004  0.504  1.0000
  O   O63       1.0  0.0  0.279  0.13  1.0000
  O   O64       1.0  0.0  0.721  0.13  1.0000
  O   O65       1.0  0.0  0.779  0.6299999999999999  1.0000
  O   O66       1.0  0.0  0.221  0.6299999999999999  1.0000
  O   O67       1.0  0.11500000000000002  0.4126000000000001  0.348  1.0000
  O   O68       1.0  0.885  0.4126000000000001  0.348  1.0000
  O   O69       1.0  0.11500000000000002  0.5873999999999999  0.348  1.0000
  O   O70       1.0  0.885  0.5873999999999999  0.348  1.0000
  O   O71       1.0  0.11500000000000002  0.9126000000000002  0.848  1.0000
  O   O72       1.0  0.885  0.9126000000000002  0.848  1.0000
  O   O73       1.0  0.11500000000000002  0.08739999999999992  0.848  1.0000
  O   O74       1.0  0.885  0.08739999999999992  0.848  1.0000
  O   O75       1.0  0.0  0.5  0.375  1.0000
  O   O76       1.0  0.0  0.0  0.875  1.0000
  O   O77       1.0  0.5  0.411  0.366  1.0000
  O   O78       1.0  0.5  0.589  0.366  1.0000
  O   O79       1.0  0.5  0.911  0.866  1.0000
  O   O80       1.0  0.5  0.08900000000000002  0.866  1.0000
  O   O81       1.0  0.3022  0.39490000000000003  0.3155  1.0000
  O   O82       1.0  0.6978  0.39490000000000003  0.3155  1.0000
  O   O83       1.0  0.3022  0.6051  0.3155  1.0000
  O   O84       1.0  0.6978  0.6051  0.3155  1.0000
  O   O85       1.0  0.3022  0.8949000000000001  0.8154999999999999  1.0000
  O   O86       1.0  0.6978  0.8949000000000001  0.8154999999999999  1.0000
  O   O87       1.0  0.3022  0.10509999999999997  0.8154999999999999  1.0000
  O   O88       1.0  0.6978  0.10509999999999997  0.8154999999999999  1.0000
  O   O89       1.0  0.365  0.5  0.361  1.0000
  O   O90       1.0  0.635  0.5  0.361  1.0000
  O   O91       1.0  0.365  0.0  0.861  1.0000
  O   O92       1.0  0.635  0.0  0.861  1.0000
  O   O93       1.0  0.156  0.2923  0.3657  1.0000
  O   O94       1.0  0.844  0.2923  0.3657  1.0000
  O   O95       1.0  0.156  0.7077  0.3657  1.0000
  O   O96       1.0  0.844  0.7077  0.3657  1.0000
  O   O97       1.0  0.156  0.7923000000000001  0.8657  1.0000
  O   O98       1.0  0.844  0.7923000000000001  0.8657  1.0000
  O   O99       1.0  0.156  0.20770000000000002  0.8657  1.0000
  O   O100      1.0  0.844  0.20770000000000002  0.8657  1.0000
  O   O101      1.0  0.176  0.339  0.1911  1.0000
  O   O102      1.0  0.8240000000000002  0.339  0.1911  1.0000
  O   O103      1.0  0.176  0.661  0.1911  1.0000
  O   O104      1.0  0.8240000000000002  0.661  0.1911  1.0000
  O   O105      1.0  0.176  0.839  0.6911  1.0000
  O   O106      1.0  0.8240000000000002  0.839  0.6911  1.0000
  O   O107      1.0  0.176  0.16099999999999998  0.6911  1.0000
  O   O108      1.0  0.8240000000000002  0.16099999999999998  0.6911  1.0000
  O   O109      1.0  0.0  0.22700000000000004  0.379  1.0000
  O   O110      1.0  0.0  0.7729999999999999  0.379  1.0000
  O   O111      1.0  0.0  0.7270000000000001  0.879  1.0000
  O   O112      1.0  0.0  0.27299999999999996  0.879  1.0000
