data_image0
_chemical_formula_structural       Y6Zn2Si2S14
_chemical_formula_sum              "Y6 Zn2 Si2 S14"
_cell_length_a       9.8071
_cell_length_b       9.807099999999998
_cell_length_c       5.64
_cell_angle_alpha    90.0
_cell_angle_beta     90.0
_cell_angle_gamma    119.99999999999999

_space_group_name_H-M_alt    "P 1"
_space_group_IT_number       1

loop_
  _space_group_symop_operation_xyz
  'x, y, z'

loop_
  _atom_site_type_symbol
  _atom_site_label
  _atom_site_symmetry_multiplicity
  _atom_site_fract_x
  _atom_site_fract_y
  _atom_site_fract_z
  _atom_site_occupancy
  Y   Y1        1.0  0.22805000000000003  0.35752  0.06181  1.0000
  Y   Y2        1.0  0.64248  0.8705300000000001  0.06181  1.0000
  Y   Y3        1.0  0.12946999999999997  0.7719499999999999  0.06181  1.0000
  Y   Y4        1.0  0.7719499999999999  0.6424799999999999  0.56181  1.0000
  Y   Y5        1.0  0.35752  0.12946999999999997  0.56181  1.0000
  Y   Y6        1.0  0.8705300000000001  0.22805000000000003  0.56181  1.0000
  Zn  Zn1       1.0  0.0  0.0  0.7969999999999999  0.5000
  Zn  Zn2       1.0  0.0  0.0  0.29700000000000004  0.5000
  Si  Si1       1.0  0.3333  0.6667  0.6473  1.0000
  Si  Si2       1.0  0.6667000000000001  0.33330000000000004  0.1473  1.0000
  S   S1        1.0  0.3333  0.6667  0.2771  1.0000
  S   S2        1.0  0.6667000000000001  0.33330000000000004  0.7770999999999999  1.0000
  S   S3        1.0  0.90806  0.15896  0.0341  1.0000
  S   S4        1.0  0.84104  0.7491  0.0341  1.0000
  S   S5        1.0  0.2509  0.09194000000000001  0.0341  1.0000
  S   S6        1.0  0.09194000000000006  0.8410400000000001  0.5341  1.0000
  S   S7        1.0  0.15896  0.2509  0.5341  1.0000
  S   S8        1.0  0.7491  0.90806  0.5341  1.0000
  S   S9        1.0  0.47764  0.58295  0.7967  1.0000
  S   S10       1.0  0.41705  0.89469  0.7967  1.0000
  S   S11       1.0  0.10530999999999997  0.5223599999999999  0.7967  1.0000
  S   S12       1.0  0.52236  0.41705000000000003  0.29669999999999996  1.0000
  S   S13       1.0  0.58295  0.10530999999999996  0.29669999999999996  1.0000
  S   S14       1.0  0.89469  0.47764000000000006  0.29669999999999996  1.0000
