data_image0
_chemical_formula_structural       Cr8F20
_chemical_formula_sum              "Cr8 F20"
_cell_length_a       7.7526
_cell_length_b       7.5228
_cell_length_c       7.447699999999999
_cell_angle_alpha    90.0
_cell_angle_beta     124.081
_cell_angle_gamma    90.0

_space_group_name_H-M_alt    "P 1"
_space_group_IT_number       1

loop_
  _space_group_symop_operation_xyz
  'x, y, z'

loop_
  _atom_site_type_symbol
  _atom_site_label
  _atom_site_symmetry_multiplicity
  _atom_site_fract_x
  _atom_site_fract_y
  _atom_site_fract_z
  _atom_site_occupancy
  Cr  Cr1       1.0  0.0  0.0  0.0  1.0000
  Cr  Cr2       1.0  0.9999999999999999  0.0  0.49999999999999994  1.0000
  Cr  Cr3       1.0  0.5  0.5  0.0  1.0000
  Cr  Cr4       1.0  0.49999999999999994  0.5  0.49999999999999994  1.0000
  Cr  Cr5       1.0  0.0  0.5  0.0  1.0000
  Cr  Cr6       1.0  0.9999999999999999  0.5  0.49999999999999994  1.0000
  Cr  Cr7       1.0  0.5  0.0  0.0  1.0000
  Cr  Cr8       1.0  0.49999999999999994  0.0  0.49999999999999994  1.0000
  F   F1        1.0  0.9999999999999999  0.053  0.24999999999999994  1.0000
  F   F2        1.0  0.0  0.947  0.75  1.0000
  F   F3        1.0  0.49999999999999994  0.553  0.24999999999999994  1.0000
  F   F4        1.0  0.49999999999999994  0.447  0.75  1.0000
  F   F5        1.0  0.2967  0.9773  0.17589999999999997  1.0000
  F   F6        1.0  0.7033  0.9773  0.3241  1.0000
  F   F7        1.0  0.7033  0.022700000000000053  0.8240999999999999  1.0000
  F   F8        1.0  0.29669999999999996  0.022700000000000053  0.6758999999999998  1.0000
  F   F9        1.0  0.7967  0.47730000000000006  0.17589999999999997  1.0000
  F   F10       1.0  0.20329999999999995  0.47730000000000006  0.3241  1.0000
  F   F11       1.0  0.20329999999999993  0.5227  0.8240999999999999  1.0000
  F   F12       1.0  0.7967  0.5227  0.6758999999999998  1.0000
  F   F13       1.0  0.023500000000000118  0.2454  0.9667  1.0000
  F   F14       1.0  0.9764999999999999  0.2454  0.5333  1.0000
  F   F15       1.0  0.9764999999999999  0.7545999999999999  0.033299999999999996  1.0000
  F   F16       1.0  0.02350000000000006  0.7545999999999999  0.4666999999999999  1.0000
  F   F17       1.0  0.5235000000000001  0.7454000000000001  0.9667  1.0000
  F   F18       1.0  0.4764999999999999  0.7454000000000001  0.5333  1.0000
  F   F19       1.0  0.4764999999999999  0.2546  0.033299999999999996  1.0000
  F   F20       1.0  0.5235000000000001  0.2546  0.4666999999999999  1.0000
