data_image0
_chemical_formula_structural       Hg4Se4Cu4Cl4
_chemical_formula_sum              "Hg4 Se4 Cu4 Cl4"
_cell_length_a       6.9444
_cell_length_b       12.7561
_cell_length_c       4.2526
_cell_angle_alpha    90.0
_cell_angle_beta     90.0
_cell_angle_gamma    90.0

_space_group_name_H-M_alt    "P 1"
_space_group_IT_number       1

loop_
  _space_group_symop_operation_xyz
  'x, y, z'

loop_
  _atom_site_type_symbol
  _atom_site_label
  _atom_site_symmetry_multiplicity
  _atom_site_fract_x
  _atom_site_fract_y
  _atom_site_fract_z
  _atom_site_occupancy
  Hg  Hg1       1.0  0.10824  0.2606  0.0  1.0000
  Hg  Hg2       1.0  0.89176  0.7394000000000001  0.0  1.0000
  Hg  Hg3       1.0  0.60824  0.2394  0.0  1.0000
  Hg  Hg4       1.0  0.39176  0.7605999999999999  0.0  1.0000
  Se  Se1       1.0  0.3394  0.11179999999999998  0.0  1.0000
  Se  Se2       1.0  0.6606000000000001  0.8881999999999999  0.0  1.0000
  Se  Se3       1.0  0.8393999999999999  0.3882  0.0  1.0000
  Se  Se4       1.0  0.16060000000000002  0.6118  0.0  1.0000
  Cu  Cu1       1.0  0.2445  0.04610000000000001  0.5  1.0000
  Cu  Cu2       1.0  0.7555000000000002  0.9539000000000001  0.5  1.0000
  Cu  Cu3       1.0  0.7444999999999998  0.45389999999999997  0.5  1.0000
  Cu  Cu4       1.0  0.2555  0.5461  0.5  1.0000
  Cl  Cl1       1.0  0.3545  0.3767  0.5  1.0000
  Cl  Cl2       1.0  0.6455  0.6233  0.5  1.0000
  Cl  Cl3       1.0  0.8545  0.12330000000000002  0.5  1.0000
  Cl  Cl4       1.0  0.14550000000000002  0.8766999999999999  0.5  1.0000
