data_image0
_chemical_formula_structural       Ca4C8
_chemical_formula_sum              "Ca4 C8"
_cell_length_a       5.73
_cell_length_b       5.73
_cell_length_c       5.73
_cell_angle_alpha    90.0
_cell_angle_beta     90.0
_cell_angle_gamma    90.0

_space_group_name_H-M_alt    "P 1"
_space_group_IT_number       1

loop_
  _space_group_symop_operation_xyz
  'x, y, z'

loop_
  _atom_site_type_symbol
  _atom_site_label
  _atom_site_symmetry_multiplicity
  _atom_site_fract_x
  _atom_site_fract_y
  _atom_site_fract_z
  _atom_site_occupancy
  Ca  Ca1       1.0  0.25  0.25  0.25  1.0000
  Ca  Ca2       1.0  0.25  0.75  0.75  1.0000
  Ca  Ca3       1.0  0.75  0.25  0.75  1.0000
  Ca  Ca4       1.0  0.75  0.75  0.25  1.0000
  C   C1        1.0  0.9000000000000001  0.9000000000000001  0.9000000000000001  1.0000
  C   C2        1.0  0.9000000000000001  0.1  0.1  1.0000
  C   C3        1.0  0.1  0.9000000000000001  0.1  1.0000
  C   C4        1.0  0.1  0.1  0.9000000000000001  1.0000
  C   C5        1.0  0.6  0.6  0.6  1.0000
  C   C6        1.0  0.6  0.4  0.4  1.0000
  C   C7        1.0  0.4  0.6  0.4  1.0000
  C   C8        1.0  0.4  0.4  0.6  1.0000
