data_image0
_chemical_formula_structural       Nb27Pd3As21
_chemical_formula_sum              "Nb27 Pd3 As21"
_cell_length_a       16.6955
_cell_length_b       16.6955
_cell_length_c       3.5582
_cell_angle_alpha    90.0
_cell_angle_beta     90.0
_cell_angle_gamma    119.99999999999999

_space_group_name_H-M_alt    "P 1"
_space_group_IT_number       1

loop_
  _space_group_symop_operation_xyz
  'x, y, z'

loop_
  _atom_site_type_symbol
  _atom_site_label
  _atom_site_symmetry_multiplicity
  _atom_site_fract_x
  _atom_site_fract_y
  _atom_site_fract_z
  _atom_site_occupancy
  Nb  Nb1       1.0  0.31536  0.20192  0.5  1.0000
  Nb  Nb2       1.0  0.79808  0.11343999999999997  0.5  1.0000
  Nb  Nb3       1.0  0.88656  0.6846399999999999  0.5  1.0000
  Nb  Nb4       1.0  0.35787  0.029729999999999993  0.5  1.0000
  Nb  Nb5       1.0  0.97027  0.32814  0.5  1.0000
  Nb  Nb6       1.0  0.6718599999999999  0.6421299999999999  0.5  1.0000
  Nb  Nb7       1.0  0.53364  0.24555999999999994  0.5  1.0000
  Nb  Nb8       1.0  0.75444  0.28807999999999995  0.5  1.0000
  Nb  Nb9       1.0  0.7119199999999999  0.46635999999999994  0.5  1.0000
  Nb  Nb10      1.0  0.57828  0.07225  0.5  1.0000
  Nb  Nb11      1.0  0.9277499999999999  0.50603  0.5  1.0000
  Nb  Nb12      1.0  0.49397  0.42171999999999993  0.5  1.0000
  Nb  Nb13      1.0  0.07269  0.49636  0.0  1.0000
  Nb  Nb14      1.0  0.5036399999999999  0.57633  0.0  1.0000
  Nb  Nb15      1.0  0.42366999999999994  0.9273099999999999  0.0  1.0000
  Nb  Nb16      1.0  0.11657999999999995  0.31843999999999995  0.0  1.0000
  Nb  Nb17      1.0  0.6815599999999999  0.79814  0.0  1.0000
  Nb  Nb18      1.0  0.20185999999999996  0.8834200000000001  0.0  1.0000
  Nb  Nb19      1.0  0.13091  0.12058999999999997  0.0  1.0000
  Nb  Nb20      1.0  0.87941  0.01032000000000001  0.0  1.0000
  Nb  Nb21      1.0  0.9896799999999999  0.8690899999999999  0.0  1.0000
  Nb  Nb22      1.0  0.28784999999999983  0.5336699999999998  0.0  1.0000
  Nb  Nb23      1.0  0.4663300000000001  0.75418  0.0  1.0000
  Nb  Nb24      1.0  0.24581999999999996  0.7121500000000001  0.0  1.0000
  Nb  Nb25      1.0  0.32442  0.35451  0.0  1.0000
  Nb  Nb26      1.0  0.64549  0.9699099999999999  0.0  1.0000
  Nb  Nb27      1.0  0.03009000000000001  0.6755800000000001  0.0  1.0000
  Pd  Pd1       1.0  0.010249999999999999  0.15826  0.5  1.0000
  Pd  Pd2       1.0  0.8417399999999998  0.8519899999999999  0.5  1.0000
  Pd  Pd3       1.0  0.14800999999999992  0.9897499999999999  0.5  1.0000
  As  As1       1.0  0.15674999999999994  0.44785  0.5  1.0000
  As  As2       1.0  0.5521499999999998  0.7088999999999999  0.5  1.0000
  As  As3       1.0  0.29109999999999997  0.8432499999999999  0.5  1.0000
  As  As4       1.0  0.19387999999999997  0.26139999999999997  0.5  1.0000
  As  As5       1.0  0.7386  0.93248  0.5  1.0000
  As  As6       1.0  0.06751999999999993  0.80612  0.5  1.0000
  As  As7       1.0  0.37261  0.48689  0.5  1.0000
  As  As8       1.0  0.51311  0.8857200000000001  0.5  1.0000
  As  As9       1.0  0.11427999999999998  0.62739  0.5  1.0000
  As  As10      1.0  0.27065  0.0728  0.0  1.0000
  As  As11      1.0  0.9272  0.19785  0.0  1.0000
  As  As12      1.0  0.8021499999999999  0.7293499999999998  0.0  1.0000
  As  As13      1.0  0.4467  0.28995999999999994  0.0  1.0000
  As  As14      1.0  0.71004  0.15674000000000005  0.0  1.0000
  As  As15      1.0  0.8432599999999998  0.5533  0.0  1.0000
  As  As16      1.0  0.48934  0.11473999999999998  0.0  1.0000
  As  As17      1.0  0.8852599999999999  0.37460000000000004  0.0  1.0000
  As  As18      1.0  0.6254  0.51066  0.0  1.0000
  As  As19      1.0  0.6667  0.3333  0.0  1.0000
  As  As20      1.0  0.3332999999999999  0.6667  0.5  1.0000
  As  As21      1.0  0.0  0.0  0.5  1.0000
