data_image0
_chemical_formula_structural       Li16Au16S16
_chemical_formula_sum              "Li16 Au16 S16"
_cell_length_a       8.9252
_cell_length_b       8.9686
_cell_length_c       11.2062
_cell_angle_alpha    90.0
_cell_angle_beta     90.0
_cell_angle_gamma    90.0

_space_group_name_H-M_alt    "P 1"
_space_group_IT_number       1

loop_
  _space_group_symop_operation_xyz
  'x, y, z'

loop_
  _atom_site_type_symbol
  _atom_site_label
  _atom_site_symmetry_multiplicity
  _atom_site_fract_x
  _atom_site_fract_y
  _atom_site_fract_z
  _atom_site_occupancy
  Li  Li1       1.0  0.125  0.125  0.4780000000000001  1.0000
  Li  Li2       1.0  0.625  0.625  0.4780000000000001  1.0000
  Li  Li3       1.0  0.625  0.125  0.27199999999999996  1.0000
  Li  Li4       1.0  0.125  0.625  0.27199999999999996  1.0000
  Li  Li5       1.0  0.125  0.625  0.9780000000000001  1.0000
  Li  Li6       1.0  0.625  0.125  0.9780000000000001  1.0000
  Li  Li7       1.0  0.625  0.625  0.772  1.0000
  Li  Li8       1.0  0.125  0.125  0.772  1.0000
  Li  Li9       1.0  0.8749999999999999  0.875  0.522  1.0000
  Li  Li10      1.0  0.375  0.375  0.522  1.0000
  Li  Li11      1.0  0.375  0.875  0.728  1.0000
  Li  Li12      1.0  0.8749999999999999  0.375  0.728  1.0000
  Li  Li13      1.0  0.8749999999999999  0.375  0.021999999999999967  1.0000
  Li  Li14      1.0  0.375  0.875  0.021999999999999967  1.0000
  Li  Li15      1.0  0.375  0.375  0.228  1.0000
  Li  Li16      1.0  0.8749999999999999  0.875  0.228  1.0000
  Au  Au1       1.0  0.0  0.0  0.0  1.0000
  Au  Au2       1.0  0.75  0.75  0.0  1.0000
  Au  Au3       1.0  0.75  0.0  0.75  1.0000
  Au  Au4       1.0  0.0  0.75  0.75  1.0000
  Au  Au5       1.0  0.0  0.5  0.5  1.0000
  Au  Au6       1.0  0.75  0.25  0.5  1.0000
  Au  Au7       1.0  0.75  0.5  0.25  1.0000
  Au  Au8       1.0  0.0  0.25  0.25  1.0000
  Au  Au9       1.0  0.5  0.0  0.5  1.0000
  Au  Au10      1.0  0.25  0.75  0.5  1.0000
  Au  Au11      1.0  0.25  0.0  0.25  1.0000
  Au  Au12      1.0  0.5  0.75  0.25  1.0000
  Au  Au13      1.0  0.5  0.5  0.0  1.0000
  Au  Au14      1.0  0.25  0.25  0.0  1.0000
  Au  Au15      1.0  0.25  0.5  0.75  1.0000
  Au  Au16      1.0  0.5  0.25  0.75  1.0000
  S   S1        1.0  0.125  0.4122  0.125  1.0000
  S   S2        1.0  0.625  0.3378  0.125  1.0000
  S   S3        1.0  0.625  0.4122  0.6250000000000001  1.0000
  S   S4        1.0  0.125  0.3378  0.6250000000000001  1.0000
  S   S5        1.0  0.125  0.9122000000000001  0.6250000000000001  1.0000
  S   S6        1.0  0.625  0.8378  0.6250000000000001  1.0000
  S   S7        1.0  0.625  0.9122000000000001  0.125  1.0000
  S   S8        1.0  0.125  0.8378  0.125  1.0000
  S   S9        1.0  0.8749999999999999  0.5878  0.8750000000000001  1.0000
  S   S10       1.0  0.375  0.6622  0.8750000000000001  1.0000
  S   S11       1.0  0.375  0.5878  0.375  1.0000
  S   S12       1.0  0.8749999999999999  0.6622  0.375  1.0000
  S   S13       1.0  0.8749999999999999  0.08779999999999999  0.375  1.0000
  S   S14       1.0  0.375  0.1621999999999999  0.375  1.0000
  S   S15       1.0  0.375  0.08779999999999999  0.8750000000000001  1.0000
  S   S16       1.0  0.8749999999999999  0.1621999999999999  0.8750000000000001  1.0000
