data_image0
_chemical_formula_structural       Ca72Al48O144
_chemical_formula_sum              "Ca72 Al48 O144"
_cell_length_a       15.263
_cell_length_b       15.263
_cell_length_c       15.263
_cell_angle_alpha    90.0
_cell_angle_beta     90.0
_cell_angle_gamma    90.0

_space_group_name_H-M_alt    "P 1"
_space_group_IT_number       1

loop_
  _space_group_symop_operation_xyz
  'x, y, z'

loop_
  _atom_site_type_symbol
  _atom_site_label
  _atom_site_symmetry_multiplicity
  _atom_site_fract_x
  _atom_site_fract_y
  _atom_site_fract_z
  _atom_site_occupancy
  Ca  Ca1       1.0  0.0  0.0  0.0  1.0000
  Ca  Ca2       1.0  0.5  0.5  0.0  1.0000
  Ca  Ca3       1.0  0.0  0.5  0.5  1.0000
  Ca  Ca4       1.0  0.5  0.0  0.5  1.0000
  Ca  Ca5       1.0  0.5  0.0  0.0  1.0000
  Ca  Ca6       1.0  0.0  0.5  0.0  1.0000
  Ca  Ca7       1.0  0.5  0.5  0.5  1.0000
  Ca  Ca8       1.0  0.0  0.0  0.5  1.0000
  Ca  Ca9       1.0  0.2561  0.2561  0.2561  1.0000
  Ca  Ca10      1.0  0.7561  0.2439  0.7439  1.0000
  Ca  Ca11      1.0  0.7439  0.7561  0.2439  1.0000
  Ca  Ca12      1.0  0.2439  0.7439  0.7561  1.0000
  Ca  Ca13      1.0  0.7439  0.7439  0.7439  1.0000
  Ca  Ca14      1.0  0.2439  0.7561  0.2561  1.0000
  Ca  Ca15      1.0  0.2561  0.2439  0.7561  1.0000
  Ca  Ca16      1.0  0.7561  0.2561  0.2439  1.0000
  Ca  Ca17      1.0  0.375  0.375  0.375  1.0000
  Ca  Ca18      1.0  0.875  0.125  0.625  1.0000
  Ca  Ca19      1.0  0.625  0.875  0.125  1.0000
  Ca  Ca20      1.0  0.125  0.625  0.875  1.0000
  Ca  Ca21      1.0  0.625  0.625  0.625  1.0000
  Ca  Ca22      1.0  0.125  0.875  0.375  1.0000
  Ca  Ca23      1.0  0.375  0.125  0.875  1.0000
  Ca  Ca24      1.0  0.875  0.375  0.125  1.0000
  Ca  Ca25      1.0  0.13860000000000003  0.3763  0.1272  1.0000
  Ca  Ca26      1.0  0.6386000000000001  0.12369999999999998  0.8728  1.0000
  Ca  Ca27      1.0  0.8613999999999999  0.8763000000000001  0.3728  1.0000
  Ca  Ca28      1.0  0.36139999999999994  0.6236999999999999  0.6272  1.0000
  Ca  Ca29      1.0  0.3763  0.1272  0.13860000000000003  1.0000
  Ca  Ca30      1.0  0.12369999999999998  0.8728  0.6386000000000001  1.0000
  Ca  Ca31      1.0  0.8763000000000001  0.3728  0.8613999999999999  1.0000
  Ca  Ca32      1.0  0.6236999999999999  0.6272  0.36139999999999994  1.0000
  Ca  Ca33      1.0  0.1272  0.13860000000000003  0.3763  1.0000
  Ca  Ca34      1.0  0.8728  0.6386000000000001  0.12369999999999998  1.0000
  Ca  Ca35      1.0  0.3728  0.8613999999999999  0.8763000000000001  1.0000
  Ca  Ca36      1.0  0.6272  0.36139999999999994  0.6236999999999999  1.0000
  Ca  Ca37      1.0  0.8613999999999999  0.6236999999999999  0.8728  1.0000
  Ca  Ca38      1.0  0.36139999999999994  0.8763000000000001  0.1272  1.0000
  Ca  Ca39      1.0  0.13860000000000003  0.12369999999999998  0.6272  1.0000
  Ca  Ca40      1.0  0.6386000000000001  0.3763  0.3728  1.0000
  Ca  Ca41      1.0  0.6236999999999999  0.8728  0.8613999999999999  1.0000
  Ca  Ca42      1.0  0.8763000000000001  0.1272  0.36139999999999994  1.0000
  Ca  Ca43      1.0  0.12369999999999998  0.6272  0.13860000000000003  1.0000
  Ca  Ca44      1.0  0.3763  0.3728  0.6386000000000001  1.0000
  Ca  Ca45      1.0  0.8728  0.8613999999999999  0.6236999999999999  1.0000
  Ca  Ca46      1.0  0.1272  0.36139999999999994  0.8763000000000001  1.0000
  Ca  Ca47      1.0  0.6272  0.13860000000000003  0.12369999999999998  1.0000
  Ca  Ca48      1.0  0.3728  0.6386000000000001  0.3763  1.0000
  Ca  Ca49      1.0  0.38  0.3838  0.1209  1.0000
  Ca  Ca50      1.0  0.88  0.11620000000000003  0.8791  1.0000
  Ca  Ca51      1.0  0.62  0.8837999999999999  0.3791  1.0000
  Ca  Ca52      1.0  0.12  0.6162000000000001  0.6209  1.0000
  Ca  Ca53      1.0  0.3838  0.1209  0.38  1.0000
  Ca  Ca54      1.0  0.11620000000000003  0.8791  0.88  1.0000
  Ca  Ca55      1.0  0.8837999999999999  0.3791  0.62  1.0000
  Ca  Ca56      1.0  0.6162000000000001  0.6209  0.12  1.0000
  Ca  Ca57      1.0  0.1209  0.38  0.3838  1.0000
  Ca  Ca58      1.0  0.8791  0.88  0.11620000000000003  1.0000
  Ca  Ca59      1.0  0.3791  0.62  0.8837999999999999  1.0000
  Ca  Ca60      1.0  0.6209  0.12  0.6162000000000001  1.0000
  Ca  Ca61      1.0  0.62  0.6162000000000001  0.8791  1.0000
  Ca  Ca62      1.0  0.12  0.8837999999999999  0.1209  1.0000
  Ca  Ca63      1.0  0.38  0.11620000000000003  0.6209  1.0000
  Ca  Ca64      1.0  0.88  0.3838  0.3791  1.0000
  Ca  Ca65      1.0  0.6162000000000001  0.8791  0.62  1.0000
  Ca  Ca66      1.0  0.8837999999999999  0.1209  0.12  1.0000
  Ca  Ca67      1.0  0.11620000000000003  0.6209  0.38  1.0000
  Ca  Ca68      1.0  0.3838  0.3791  0.88  1.0000
  Ca  Ca69      1.0  0.8791  0.62  0.6162000000000001  1.0000
  Ca  Ca70      1.0  0.1209  0.12  0.8837999999999999  1.0000
  Ca  Ca71      1.0  0.6209  0.38  0.11620000000000003  1.0000
  Ca  Ca72      1.0  0.3791  0.88  0.3838  1.0000
  Al  Al1       1.0  0.2526  0.0133  0.0197  1.0000
  Al  Al2       1.0  0.7525999999999999  0.4867  0.9803  1.0000
  Al  Al3       1.0  0.7474000000000001  0.5133  0.4803  1.0000
  Al  Al4       1.0  0.2474  0.9867  0.5197  1.0000
  Al  Al5       1.0  0.0133  0.0197  0.2526  1.0000
  Al  Al6       1.0  0.4867  0.9803  0.7525999999999999  1.0000
  Al  Al7       1.0  0.5133  0.4803  0.7474000000000001  1.0000
  Al  Al8       1.0  0.9867  0.5197  0.2474  1.0000
  Al  Al9       1.0  0.0197  0.2526  0.0133  1.0000
  Al  Al10      1.0  0.9803  0.7525999999999999  0.4867  1.0000
  Al  Al11      1.0  0.4803  0.7474000000000001  0.5133  1.0000
  Al  Al12      1.0  0.5197  0.2474  0.9867  1.0000
  Al  Al13      1.0  0.7474000000000001  0.9867  0.9803  1.0000
  Al  Al14      1.0  0.2474  0.5133  0.0197  1.0000
  Al  Al15      1.0  0.2526  0.4867  0.5197  1.0000
  Al  Al16      1.0  0.7525999999999999  0.0133  0.4803  1.0000
  Al  Al17      1.0  0.9867  0.9803  0.7474000000000001  1.0000
  Al  Al18      1.0  0.5133  0.0197  0.2474  1.0000
  Al  Al19      1.0  0.4867  0.5197  0.2526  1.0000
  Al  Al20      1.0  0.0133  0.4803  0.7525999999999999  1.0000
  Al  Al21      1.0  0.9803  0.7474000000000001  0.9867  1.0000
  Al  Al22      1.0  0.0197  0.2474  0.5133  1.0000
  Al  Al23      1.0  0.5197  0.2526  0.4867  1.0000
  Al  Al24      1.0  0.4803  0.7525999999999999  0.0133  1.0000
  Al  Al25      1.0  0.2444  0.2335  0.0046  1.0000
  Al  Al26      1.0  0.7444  0.26649999999999996  0.9954  1.0000
  Al  Al27      1.0  0.7556  0.7335  0.4954  1.0000
  Al  Al28      1.0  0.2556  0.7665  0.5046  1.0000
  Al  Al29      1.0  0.2335  0.0046  0.2444  1.0000
  Al  Al30      1.0  0.26649999999999996  0.9954  0.7444  1.0000
  Al  Al31      1.0  0.7335  0.4954  0.7556  1.0000
  Al  Al32      1.0  0.7665  0.5046  0.2556  1.0000
  Al  Al33      1.0  0.0046  0.2444  0.2335  1.0000
  Al  Al34      1.0  0.9954  0.7444  0.26649999999999996  1.0000
  Al  Al35      1.0  0.4954  0.7556  0.7335  1.0000
  Al  Al36      1.0  0.5046  0.2556  0.7665  1.0000
  Al  Al37      1.0  0.7556  0.7665  0.9954  1.0000
  Al  Al38      1.0  0.2556  0.7335  0.0046  1.0000
  Al  Al39      1.0  0.2444  0.26649999999999996  0.5046  1.0000
  Al  Al40      1.0  0.7444  0.2335  0.4954  1.0000
  Al  Al41      1.0  0.7665  0.9954  0.7556  1.0000
  Al  Al42      1.0  0.7335  0.0046  0.2556  1.0000
  Al  Al43      1.0  0.26649999999999996  0.5046  0.2444  1.0000
  Al  Al44      1.0  0.2335  0.4954  0.7444  1.0000
  Al  Al45      1.0  0.9954  0.7556  0.7665  1.0000
  Al  Al46      1.0  0.0046  0.2556  0.7335  1.0000
  Al  Al47      1.0  0.5046  0.2444  0.26649999999999996  1.0000
  Al  Al48      1.0  0.4954  0.7444  0.2335  1.0000
  O   O1        1.0  0.2777  0.1241  0.0103  1.0000
  O   O2        1.0  0.7777000000000001  0.3759  0.9897000000000001  1.0000
  O   O3        1.0  0.7223  0.6241  0.4897  1.0000
  O   O4        1.0  0.2223  0.8759  0.5103  1.0000
  O   O5        1.0  0.1241  0.0103  0.2777  1.0000
  O   O6        1.0  0.3759  0.9897000000000001  0.7777000000000001  1.0000
  O   O7        1.0  0.6241  0.4897  0.7223  1.0000
  O   O8        1.0  0.8759  0.5103  0.2223  1.0000
  O   O9        1.0  0.0103  0.2777  0.1241  1.0000
  O   O10       1.0  0.9897000000000001  0.7777000000000001  0.3759  1.0000
  O   O11       1.0  0.4897  0.7223  0.6241  1.0000
  O   O12       1.0  0.5103  0.2223  0.8759  1.0000
  O   O13       1.0  0.7223  0.8759  0.9897000000000001  1.0000
  O   O14       1.0  0.2223  0.6241  0.0103  1.0000
  O   O15       1.0  0.2777  0.3759  0.5103  1.0000
  O   O16       1.0  0.7777000000000001  0.1241  0.4897  1.0000
  O   O17       1.0  0.8759  0.9897000000000001  0.7223  1.0000
  O   O18       1.0  0.6241  0.0103  0.2223  1.0000
  O   O19       1.0  0.3759  0.5103  0.2777  1.0000
  O   O20       1.0  0.1241  0.4897  0.7777000000000001  1.0000
  O   O21       1.0  0.9897000000000001  0.7223  0.8759  1.0000
  O   O22       1.0  0.0103  0.2223  0.6241  1.0000
  O   O23       1.0  0.5103  0.2777  0.3759  1.0000
  O   O24       1.0  0.4897  0.7777000000000001  0.1241  1.0000
  O   O25       1.0  0.4835  0.1315  0.2536  1.0000
  O   O26       1.0  0.9835  0.3685  0.7464  1.0000
  O   O27       1.0  0.5165  0.6315  0.2464  1.0000
  O   O28       1.0  0.016500000000000015  0.8685  0.7536  1.0000
  O   O29       1.0  0.1315  0.2536  0.4835  1.0000
  O   O30       1.0  0.3685  0.7464  0.9835  1.0000
  O   O31       1.0  0.6315  0.2464  0.5165  1.0000
  O   O32       1.0  0.8685  0.7536  0.016500000000000015  1.0000
  O   O33       1.0  0.2536  0.4835  0.1315  1.0000
  O   O34       1.0  0.7464  0.9835  0.3685  1.0000
  O   O35       1.0  0.2464  0.5165  0.6315  1.0000
  O   O36       1.0  0.7536  0.016500000000000015  0.8685  1.0000
  O   O37       1.0  0.5165  0.8685  0.7464  1.0000
  O   O38       1.0  0.016500000000000015  0.6315  0.2536  1.0000
  O   O39       1.0  0.4835  0.3685  0.7536  1.0000
  O   O40       1.0  0.9835  0.1315  0.2464  1.0000
  O   O41       1.0  0.8685  0.7464  0.5165  1.0000
  O   O42       1.0  0.6315  0.2536  0.016500000000000015  1.0000
  O   O43       1.0  0.3685  0.7536  0.4835  1.0000
  O   O44       1.0  0.1315  0.2464  0.9835  1.0000
  O   O45       1.0  0.7464  0.5165  0.8685  1.0000
  O   O46       1.0  0.2536  0.016500000000000015  0.6315  1.0000
  O   O47       1.0  0.7536  0.4835  0.3685  1.0000
  O   O48       1.0  0.2464  0.9835  0.1315  1.0000
  O   O49       1.0  0.2664  0.2841  0.1049  1.0000
  O   O50       1.0  0.7664  0.21589999999999998  0.8951  1.0000
  O   O51       1.0  0.7336  0.7841  0.3951  1.0000
  O   O52       1.0  0.23359999999999997  0.7159  0.6049  1.0000
  O   O53       1.0  0.2841  0.1049  0.2664  1.0000
  O   O54       1.0  0.21589999999999998  0.8951  0.7664  1.0000
  O   O55       1.0  0.7841  0.3951  0.7336  1.0000
  O   O56       1.0  0.7159  0.6049  0.23359999999999997  1.0000
  O   O57       1.0  0.1049  0.2664  0.2841  1.0000
  O   O58       1.0  0.8951  0.7664  0.21589999999999998  1.0000
  O   O59       1.0  0.3951  0.7336  0.7841  1.0000
  O   O60       1.0  0.6049  0.23359999999999997  0.7159  1.0000
  O   O61       1.0  0.7336  0.7159  0.8951  1.0000
  O   O62       1.0  0.23359999999999997  0.7841  0.1049  1.0000
  O   O63       1.0  0.2664  0.21589999999999998  0.6049  1.0000
  O   O64       1.0  0.7664  0.2841  0.3951  1.0000
  O   O65       1.0  0.7159  0.8951  0.7336  1.0000
  O   O66       1.0  0.7841  0.1049  0.23359999999999997  1.0000
  O   O67       1.0  0.21589999999999998  0.6049  0.2664  1.0000
  O   O68       1.0  0.2841  0.3951  0.7664  1.0000
  O   O69       1.0  0.8951  0.7336  0.7159  1.0000
  O   O70       1.0  0.1049  0.23359999999999997  0.7841  1.0000
  O   O71       1.0  0.6049  0.2664  0.21589999999999998  1.0000
  O   O72       1.0  0.3951  0.7664  0.2841  1.0000
  O   O73       1.0  0.235  0.4047  0.2921  1.0000
  O   O74       1.0  0.735  0.0953  0.7079  1.0000
  O   O75       1.0  0.765  0.9047000000000001  0.20789999999999997  1.0000
  O   O76       1.0  0.265  0.5952999999999999  0.7921  1.0000
  O   O77       1.0  0.4047  0.2921  0.235  1.0000
  O   O78       1.0  0.0953  0.7079  0.735  1.0000
  O   O79       1.0  0.9047000000000001  0.20789999999999997  0.765  1.0000
  O   O80       1.0  0.5952999999999999  0.7921  0.265  1.0000
  O   O81       1.0  0.2921  0.235  0.4047  1.0000
  O   O82       1.0  0.7079  0.735  0.0953  1.0000
  O   O83       1.0  0.20789999999999997  0.765  0.9047000000000001  1.0000
  O   O84       1.0  0.7921  0.265  0.5952999999999999  1.0000
  O   O85       1.0  0.765  0.5952999999999999  0.7079  1.0000
  O   O86       1.0  0.265  0.9047000000000001  0.2921  1.0000
  O   O87       1.0  0.235  0.0953  0.7921  1.0000
  O   O88       1.0  0.735  0.4047  0.20789999999999997  1.0000
  O   O89       1.0  0.5952999999999999  0.7079  0.765  1.0000
  O   O90       1.0  0.9047000000000001  0.2921  0.265  1.0000
  O   O91       1.0  0.0953  0.7921  0.235  1.0000
  O   O92       1.0  0.4047  0.20789999999999997  0.735  1.0000
  O   O93       1.0  0.7079  0.765  0.5952999999999999  1.0000
  O   O94       1.0  0.2921  0.265  0.9047000000000001  1.0000
  O   O95       1.0  0.7921  0.235  0.0953  1.0000
  O   O96       1.0  0.20789999999999997  0.735  0.4047  1.0000
  O   O97       1.0  0.3491  0.9615  0.9826  1.0000
  O   O98       1.0  0.8491  0.5385  0.0174  1.0000
  O   O99       1.0  0.6509  0.4615  0.5174  1.0000
  O   O100      1.0  0.15089999999999998  0.0385  0.48260000000000003  1.0000
  O   O101      1.0  0.9615  0.9826  0.3491  1.0000
  O   O102      1.0  0.5385  0.0174  0.8491  1.0000
  O   O103      1.0  0.4615  0.5174  0.6509  1.0000
  O   O104      1.0  0.0385  0.48260000000000003  0.15089999999999998  1.0000
  O   O105      1.0  0.9826  0.3491  0.9615  1.0000
  O   O106      1.0  0.0174  0.8491  0.5385  1.0000
  O   O107      1.0  0.5174  0.6509  0.4615  1.0000
  O   O108      1.0  0.48260000000000003  0.15089999999999998  0.0385  1.0000
  O   O109      1.0  0.6509  0.0385  0.0174  1.0000
  O   O110      1.0  0.15089999999999998  0.4615  0.9826  1.0000
  O   O111      1.0  0.3491  0.5385  0.48260000000000003  1.0000
  O   O112      1.0  0.8491  0.9615  0.5174  1.0000
  O   O113      1.0  0.0385  0.0174  0.6509  1.0000
  O   O114      1.0  0.4615  0.9826  0.15089999999999998  1.0000
  O   O115      1.0  0.5385  0.48260000000000003  0.3491  1.0000
  O   O116      1.0  0.9615  0.5174  0.8491  1.0000
  O   O117      1.0  0.0174  0.6509  0.0385  1.0000
  O   O118      1.0  0.9826  0.15089999999999998  0.4615  1.0000
  O   O119      1.0  0.48260000000000003  0.3491  0.5385  1.0000
  O   O120      1.0  0.5174  0.8491  0.9615  1.0000
  O   O121      1.0  0.1509  0.9896  0.9758  1.0000
  O   O122      1.0  0.6509  0.5104  0.0242  1.0000
  O   O123      1.0  0.8491  0.4896  0.5242  1.0000
  O   O124      1.0  0.34909999999999997  0.0104  0.4758  1.0000
  O   O125      1.0  0.9896  0.9758  0.1509  1.0000
  O   O126      1.0  0.5104  0.0242  0.6509  1.0000
  O   O127      1.0  0.4896  0.5242  0.8491  1.0000
  O   O128      1.0  0.0104  0.4758  0.34909999999999997  1.0000
  O   O129      1.0  0.9758  0.1509  0.9896  1.0000
  O   O130      1.0  0.0242  0.6509  0.5104  1.0000
  O   O131      1.0  0.5242  0.8491  0.4896  1.0000
  O   O132      1.0  0.4758  0.34909999999999997  0.0104  1.0000
  O   O133      1.0  0.8491  0.0104  0.0242  1.0000
  O   O134      1.0  0.34909999999999997  0.4896  0.9758  1.0000
  O   O135      1.0  0.1509  0.5104  0.4758  1.0000
  O   O136      1.0  0.6509  0.9896  0.5242  1.0000
  O   O137      1.0  0.0104  0.0242  0.8491  1.0000
  O   O138      1.0  0.4896  0.9758  0.34909999999999997  1.0000
  O   O139      1.0  0.5104  0.4758  0.1509  1.0000
  O   O140      1.0  0.9896  0.5242  0.6509  1.0000
  O   O141      1.0  0.0242  0.8491  0.0104  1.0000
  O   O142      1.0  0.9758  0.34909999999999997  0.4896  1.0000
  O   O143      1.0  0.4758  0.1509  0.5104  1.0000
  O   O144      1.0  0.5242  0.6509  0.9896  1.0000
