4
Lattice="1.0 0.0 0.0 0.0 1.0 0.0 0.0 0.0 1.0" Properties=species:S:1:pos:R:3 pbc="F F F"
X        0.87500000       0.87500000       0.87500000
X        0.12500000       0.37500000       0.62500000
X        0.37500000       0.62500000       0.12500000
X        0.62500000       0.12500000       0.37500000
