data_image0
_chemical_formula_structural       Re24Se32Cl24K4
_chemical_formula_sum              "Re24 Se32 Cl24 K4"
_cell_length_a       12.9553
_cell_length_b       12.9553
_cell_length_c       12.9553
_cell_angle_alpha    90.0
_cell_angle_beta     90.0
_cell_angle_gamma    90.0

_space_group_name_H-M_alt    "P 1"
_space_group_IT_number       1

loop_
  _space_group_symop_operation_xyz
  'x, y, z'

loop_
  _atom_site_type_symbol
  _atom_site_label
  _atom_site_symmetry_multiplicity
  _atom_site_fract_x
  _atom_site_fract_y
  _atom_site_fract_z
  _atom_site_occupancy
  Re  Re1       1.0  0.13279999999999997  0.53176  0.04196  0.5800
  Re  Re2       1.0  0.36719999999999997  0.9682399999999999  0.04196  0.5800
  Re  Re3       1.0  0.36719999999999997  0.53176  0.45803999999999995  0.5800
  Re  Re4       1.0  0.13279999999999997  0.9682399999999999  0.45803999999999995  0.5800
  Re  Re5       1.0  0.04196  0.13279999999999997  0.53176  0.5800
  Re  Re6       1.0  0.04196  0.36719999999999997  0.9682399999999999  0.5800
  Re  Re7       1.0  0.45803999999999995  0.36719999999999997  0.53176  0.5800
  Re  Re8       1.0  0.45803999999999995  0.13279999999999997  0.9682399999999999  0.5800
  Re  Re9       1.0  0.53176  0.04196  0.13279999999999997  0.5800
  Re  Re10      1.0  0.9682399999999999  0.04196  0.36719999999999997  0.5800
  Re  Re11      1.0  0.53176  0.45803999999999995  0.36719999999999997  0.5800
  Re  Re12      1.0  0.9682399999999999  0.45803999999999995  0.13279999999999997  0.5800
  Re  Re13      1.0  0.8671999999999999  0.46823999999999993  0.9580399999999999  0.5800
  Re  Re14      1.0  0.6327999999999999  0.031760000000000004  0.9580399999999999  0.5800
  Re  Re15      1.0  0.6327999999999999  0.46823999999999993  0.54196  0.5800
  Re  Re16      1.0  0.8671999999999999  0.031760000000000004  0.54196  0.5800
  Re  Re17      1.0  0.9580399999999999  0.8671999999999999  0.46823999999999993  0.5800
  Re  Re18      1.0  0.9580399999999999  0.6327999999999999  0.031760000000000004  0.5800
  Re  Re19      1.0  0.54196  0.6327999999999999  0.46823999999999993  0.5800
  Re  Re20      1.0  0.54196  0.8671999999999999  0.031760000000000004  0.5800
  Re  Re21      1.0  0.46823999999999993  0.9580399999999999  0.8671999999999999  0.5800
  Re  Re22      1.0  0.031760000000000004  0.9580399999999999  0.6327999999999999  0.5800
  Re  Re23      1.0  0.46823999999999993  0.54196  0.6327999999999999  0.5800
  Re  Re24      1.0  0.031760000000000004  0.54196  0.8671999999999999  0.5800
  Se  Se1       1.0  0.13712  0.36288  0.13712  0.9400
  Se  Se2       1.0  0.36288  0.13712000000000002  0.13712  0.9400
  Se  Se3       1.0  0.36288  0.36288  0.36288  0.9400
  Se  Se4       1.0  0.13712  0.13712000000000002  0.36288  0.9400
  Se  Se5       1.0  0.86288  0.63712  0.86288  0.9400
  Se  Se6       1.0  0.63712  0.86288  0.86288  0.9400
  Se  Se7       1.0  0.63712  0.63712  0.63712  0.9400
  Se  Se8       1.0  0.86288  0.86288  0.63712  0.9400
  Se  Se9       1.0  0.19651  0.44394999999999996  0.8818699999999999  0.9400
  Se  Se10      1.0  0.30349000000000004  0.056050000000000044  0.8818699999999999  0.9400
  Se  Se11      1.0  0.30349000000000004  0.44394999999999996  0.6181299999999998  0.9400
  Se  Se12      1.0  0.19651  0.056050000000000044  0.6181299999999998  0.9400
  Se  Se13      1.0  0.8818699999999999  0.19651  0.44394999999999996  0.9400
  Se  Se14      1.0  0.8818699999999999  0.30349000000000004  0.056050000000000044  0.9400
  Se  Se15      1.0  0.6181299999999998  0.30349000000000004  0.44394999999999996  0.9400
  Se  Se16      1.0  0.6181299999999998  0.19651  0.056050000000000044  0.9400
  Se  Se17      1.0  0.44394999999999996  0.8818699999999999  0.19651  0.9400
  Se  Se18      1.0  0.056050000000000044  0.8818699999999999  0.30349000000000004  0.9400
  Se  Se19      1.0  0.44394999999999996  0.6181299999999998  0.30349000000000004  0.9400
  Se  Se20      1.0  0.056050000000000044  0.6181299999999998  0.19651  0.9400
  Se  Se21      1.0  0.8034899999999999  0.5560499999999999  0.11813  0.9400
  Se  Se22      1.0  0.6965099999999999  0.94395  0.11813  0.9400
  Se  Se23      1.0  0.6965099999999999  0.5560499999999999  0.38186999999999993  0.9400
  Se  Se24      1.0  0.8034899999999999  0.94395  0.38186999999999993  0.9400
  Se  Se25      1.0  0.11813  0.8034899999999999  0.5560499999999999  0.9400
  Se  Se26      1.0  0.11813  0.6965099999999999  0.94395  0.9400
  Se  Se27      1.0  0.38186999999999993  0.6965099999999999  0.5560499999999999  0.9400
  Se  Se28      1.0  0.38186999999999993  0.8034899999999999  0.94395  0.9400
  Se  Se29      1.0  0.5560499999999999  0.11813  0.8034899999999999  0.9400
  Se  Se30      1.0  0.94395  0.11813  0.6965099999999999  0.9400
  Se  Se31      1.0  0.5560499999999999  0.38186999999999993  0.6965099999999999  0.9400
  Se  Se32      1.0  0.94395  0.38186999999999993  0.8034899999999999  0.9400
  Cl  Cl1       1.0  0.3023  0.576  0.09689999999999997  1.0000
  Cl  Cl2       1.0  0.19769999999999996  0.9239999999999999  0.09689999999999997  1.0000
  Cl  Cl3       1.0  0.19769999999999996  0.576  0.40309999999999996  1.0000
  Cl  Cl4       1.0  0.3023  0.9239999999999999  0.40309999999999996  1.0000
  Cl  Cl5       1.0  0.09689999999999997  0.3023  0.576  1.0000
  Cl  Cl6       1.0  0.09689999999999997  0.19769999999999996  0.9239999999999999  1.0000
  Cl  Cl7       1.0  0.40309999999999996  0.19769999999999996  0.576  1.0000
  Cl  Cl8       1.0  0.40309999999999996  0.3023  0.9239999999999999  1.0000
  Cl  Cl9       1.0  0.576  0.09689999999999997  0.3023  1.0000
  Cl  Cl10      1.0  0.9239999999999999  0.09689999999999997  0.19769999999999996  1.0000
  Cl  Cl11      1.0  0.576  0.40309999999999996  0.19769999999999996  1.0000
  Cl  Cl12      1.0  0.9239999999999999  0.40309999999999996  0.3023  1.0000
  Cl  Cl13      1.0  0.6976999999999999  0.424  0.9030999999999999  1.0000
  Cl  Cl14      1.0  0.8022999999999999  0.07600000000000005  0.9030999999999999  1.0000
  Cl  Cl15      1.0  0.8022999999999999  0.424  0.5969  1.0000
  Cl  Cl16      1.0  0.6976999999999999  0.07600000000000005  0.5969  1.0000
  Cl  Cl17      1.0  0.9030999999999999  0.6976999999999999  0.424  1.0000
  Cl  Cl18      1.0  0.9030999999999999  0.8022999999999999  0.07600000000000005  1.0000
  Cl  Cl19      1.0  0.5969  0.8022999999999999  0.424  1.0000
  Cl  Cl20      1.0  0.5969  0.6976999999999999  0.07600000000000005  1.0000
  Cl  Cl21      1.0  0.424  0.9030999999999999  0.6976999999999999  1.0000
  Cl  Cl22      1.0  0.07600000000000005  0.9030999999999999  0.8022999999999999  1.0000
  Cl  Cl23      1.0  0.424  0.5969  0.8022999999999999  1.0000
  Cl  Cl24      1.0  0.07600000000000005  0.5969  0.6976999999999999  1.0000
  K   K1        1.0  0.4999999999999999  0.4999999999999999  0.0  1.0000
  K   K2        1.0  5.551115123125782e-17  5.551115123125782e-17  0.0  1.0000
  K   K3        1.0  5.551115123125782e-17  0.4999999999999999  0.49999999999999994  1.0000
  K   K4        1.0  0.4999999999999999  5.551115123125782e-17  0.49999999999999994  1.0000
  Os  Os1       1.0  0.13279999999999997  0.53176  0.04196  0.4200
  Os  Os2       1.0  0.36719999999999997  0.9682399999999999  0.04196  0.4200
  Os  Os3       1.0  0.36719999999999997  0.53176  0.45803999999999995  0.4200
  Os  Os4       1.0  0.13279999999999997  0.9682399999999999  0.45803999999999995  0.4200
  Os  Os5       1.0  0.04196  0.13279999999999997  0.53176  0.4200
  Os  Os6       1.0  0.04196  0.36719999999999997  0.9682399999999999  0.4200
  Os  Os7       1.0  0.45803999999999995  0.36719999999999997  0.53176  0.4200
  Os  Os8       1.0  0.45803999999999995  0.13279999999999997  0.9682399999999999  0.4200
  Os  Os9       1.0  0.53176  0.04196  0.13279999999999997  0.4200
  Os  Os10      1.0  0.9682399999999999  0.04196  0.36719999999999997  0.4200
  Os  Os11      1.0  0.53176  0.45803999999999995  0.36719999999999997  0.4200
  Os  Os12      1.0  0.9682399999999999  0.45803999999999995  0.13279999999999997  0.4200
  Os  Os13      1.0  0.8671999999999999  0.46823999999999993  0.9580399999999999  0.4200
  Os  Os14      1.0  0.6327999999999999  0.031760000000000004  0.9580399999999999  0.4200
  Os  Os15      1.0  0.6327999999999999  0.46823999999999993  0.54196  0.4200
  Os  Os16      1.0  0.8671999999999999  0.031760000000000004  0.54196  0.4200
  Os  Os17      1.0  0.9580399999999999  0.8671999999999999  0.46823999999999993  0.4200
  Os  Os18      1.0  0.9580399999999999  0.6327999999999999  0.031760000000000004  0.4200
  Os  Os19      1.0  0.54196  0.6327999999999999  0.46823999999999993  0.4200
  Os  Os20      1.0  0.54196  0.8671999999999999  0.031760000000000004  0.4200
  Os  Os21      1.0  0.46823999999999993  0.9580399999999999  0.8671999999999999  0.4200
  Os  Os22      1.0  0.031760000000000004  0.9580399999999999  0.6327999999999999  0.4200
  Os  Os23      1.0  0.46823999999999993  0.54196  0.6327999999999999  0.4200
  Os  Os24      1.0  0.031760000000000004  0.54196  0.8671999999999999  0.4200
  Cl  Cl25      1.0  0.13712  0.36288  0.13712  0.0600
  Cl  Cl26      1.0  0.36288  0.13712000000000002  0.13712  0.0600
  Cl  Cl27      1.0  0.36288  0.36288  0.36288  0.0600
  Cl  Cl28      1.0  0.13712  0.13712000000000002  0.36288  0.0600
  Cl  Cl29      1.0  0.86288  0.63712  0.86288  0.0600
  Cl  Cl30      1.0  0.63712  0.86288  0.86288  0.0600
  Cl  Cl31      1.0  0.63712  0.63712  0.63712  0.0600
  Cl  Cl32      1.0  0.86288  0.86288  0.63712  0.0600
  Cl  Cl33      1.0  0.19651  0.44394999999999996  0.8818699999999999  0.0600
  Cl  Cl34      1.0  0.30349000000000004  0.056050000000000044  0.8818699999999999  0.0600
  Cl  Cl35      1.0  0.30349000000000004  0.44394999999999996  0.6181299999999998  0.0600
  Cl  Cl36      1.0  0.19651  0.056050000000000044  0.6181299999999998  0.0600
  Cl  Cl37      1.0  0.8818699999999999  0.19651  0.44394999999999996  0.0600
  Cl  Cl38      1.0  0.8818699999999999  0.30349000000000004  0.056050000000000044  0.0600
  Cl  Cl39      1.0  0.6181299999999998  0.30349000000000004  0.44394999999999996  0.0600
  Cl  Cl40      1.0  0.6181299999999998  0.19651  0.056050000000000044  0.0600
  Cl  Cl41      1.0  0.44394999999999996  0.8818699999999999  0.19651  0.0600
  Cl  Cl42      1.0  0.056050000000000044  0.8818699999999999  0.30349000000000004  0.0600
  Cl  Cl43      1.0  0.44394999999999996  0.6181299999999998  0.30349000000000004  0.0600
  Cl  Cl44      1.0  0.056050000000000044  0.6181299999999998  0.19651  0.0600
  Cl  Cl45      1.0  0.8034899999999999  0.5560499999999999  0.11813  0.0600
  Cl  Cl46      1.0  0.6965099999999999  0.94395  0.11813  0.0600
  Cl  Cl47      1.0  0.6965099999999999  0.5560499999999999  0.38186999999999993  0.0600
  Cl  Cl48      1.0  0.8034899999999999  0.94395  0.38186999999999993  0.0600
  Cl  Cl49      1.0  0.11813  0.8034899999999999  0.5560499999999999  0.0600
  Cl  Cl50      1.0  0.11813  0.6965099999999999  0.94395  0.0600
  Cl  Cl51      1.0  0.38186999999999993  0.6965099999999999  0.5560499999999999  0.0600
  Cl  Cl52      1.0  0.38186999999999993  0.8034899999999999  0.94395  0.0600
  Cl  Cl53      1.0  0.5560499999999999  0.11813  0.8034899999999999  0.0600
  Cl  Cl54      1.0  0.94395  0.11813  0.6965099999999999  0.0600
  Cl  Cl55      1.0  0.5560499999999999  0.38186999999999993  0.6965099999999999  0.0600
  Cl  Cl56      1.0  0.94395  0.38186999999999993  0.8034899999999999  0.0600
