data_image0
_chemical_formula_structural       Ta12N20
_chemical_formula_sum              "Ta12 N20"
_cell_length_a       3.8862
_cell_length_b       10.2118
_cell_length_c       10.2624
_cell_angle_alpha    90.0
_cell_angle_beta     90.0
_cell_angle_gamma    90.0

_space_group_name_H-M_alt    "P 1"
_space_group_IT_number       1

loop_
  _space_group_symop_operation_xyz
  'x, y, z'

loop_
  _atom_site_type_symbol
  _atom_site_label
  _atom_site_symmetry_multiplicity
  _atom_site_fract_x
  _atom_site_fract_y
  _atom_site_fract_z
  _atom_site_occupancy
  Ta  Ta1       1.0  0.0  0.19709999999999997  0.25  1.0000
  Ta  Ta2       1.0  0.0  0.8029000000000001  0.75  1.0000
  Ta  Ta3       1.0  0.49999999999999994  0.6970999999999999  0.25  1.0000
  Ta  Ta4       1.0  0.49999999999999994  0.30290000000000006  0.75  1.0000
  Ta  Ta5       1.0  0.0  0.13455  0.55906  1.0000
  Ta  Ta6       1.0  0.0  0.86545  0.44094  1.0000
  Ta  Ta7       1.0  0.0  0.13455  0.94094  1.0000
  Ta  Ta8       1.0  0.0  0.86545  0.05906000000000012  1.0000
  Ta  Ta9       1.0  0.49999999999999994  0.63455  0.55906  1.0000
  Ta  Ta10      1.0  0.49999999999999994  0.36545  0.44094  1.0000
  Ta  Ta11      1.0  0.49999999999999994  0.63455  0.94094  1.0000
  Ta  Ta12      1.0  0.49999999999999994  0.36545  0.05906000000000012  1.0000
  N   N1        1.0  0.0  0.76322  0.25  1.0000
  N   N2        1.0  0.0  0.23678  0.75  1.0000
  N   N3        1.0  0.49999999999999994  0.26321999999999995  0.25  1.0000
  N   N4        1.0  0.49999999999999994  0.7367799999999999  0.75  1.0000
  N   N5        1.0  0.0  0.04701  0.11949  1.0000
  N   N6        1.0  0.0  0.9529899999999999  0.8805100000000001  1.0000
  N   N7        1.0  0.0  0.04701  0.38051  1.0000
  N   N8        1.0  0.0  0.9529899999999999  0.61949  1.0000
  N   N9        1.0  0.49999999999999994  0.54701  0.11949  1.0000
  N   N10       1.0  0.49999999999999994  0.45298999999999995  0.8805100000000001  1.0000
  N   N11       1.0  0.49999999999999994  0.54701  0.38051  1.0000
  N   N12       1.0  0.49999999999999994  0.45298999999999995  0.61949  1.0000
  N   N13       1.0  0.0  0.30861999999999995  0.07378  1.0000
  N   N14       1.0  0.0  0.6913800000000001  0.9262200000000002  1.0000
  N   N15       1.0  0.0  0.30861999999999995  0.42622000000000004  1.0000
  N   N16       1.0  0.0  0.6913800000000001  0.5737800000000001  1.0000
  N   N17       1.0  0.49999999999999994  0.8086199999999998  0.07378  1.0000
  N   N18       1.0  0.49999999999999994  0.19138000000000005  0.9262200000000002  1.0000
  N   N19       1.0  0.49999999999999994  0.8086199999999998  0.42622000000000004  1.0000
  N   N20       1.0  0.49999999999999994  0.19138000000000005  0.5737800000000001  1.0000
