data_image0
_chemical_formula_structural       Sn4K8Br24
_chemical_formula_sum              "Sn4 K8 Br24"
_cell_length_a       7.43
_cell_length_b       7.43
_cell_length_c       10.61
_cell_angle_alpha    90.0
_cell_angle_beta     90.0
_cell_angle_gamma    90.0

_space_group_name_H-M_alt    "P 1"
_space_group_IT_number       1

loop_
  _space_group_symop_operation_xyz
  'x, y, z'

loop_
  _atom_site_type_symbol
  _atom_site_label
  _atom_site_symmetry_multiplicity
  _atom_site_fract_x
  _atom_site_fract_y
  _atom_site_fract_z
  _atom_site_occupancy
  Sn  Sn1       1.0  0.25  0.25  0.25  1.0000
  Sn  Sn2       1.0  0.75  0.75  0.25  1.0000
  Sn  Sn3       1.0  0.25  0.75  0.75  1.0000
  Sn  Sn4       1.0  0.75  0.25  0.75  1.0000
  K   K1        1.0  0.0  0.0  0.0  1.0000
  K   K2        1.0  0.5  0.0  0.0  1.0000
  K   K3        1.0  0.5  0.5  0.0  1.0000
  K   K4        1.0  0.0  0.5  0.0  1.0000
  K   K5        1.0  0.0  0.0  0.5  1.0000
  K   K6        1.0  0.5  0.0  0.5  1.0000
  K   K7        1.0  0.5  0.5  0.5  1.0000
  K   K8        1.0  0.0  0.5  0.5  1.0000
  Br  Br1       1.0  0.25  0.25  0.54  1.0000
  Br  Br2       1.0  0.75  0.75  0.54  1.0000
  Br  Br3       1.0  0.25  0.75  0.46  1.0000
  Br  Br4       1.0  0.75  0.25  0.46  1.0000
  Br  Br5       1.0  0.25  0.25  0.98  1.0000
  Br  Br6       1.0  0.75  0.75  0.98  1.0000
  Br  Br7       1.0  0.25  0.75  0.020000000000000004  1.0000
  Br  Br8       1.0  0.75  0.25  0.020000000000000004  1.0000
  Br  Br9       1.0  0.22000000000000003  0.0  0.245  1.0000
  Br  Br10      1.0  0.78  0.0  0.245  1.0000
  Br  Br11      1.0  0.22000000000000003  0.0  0.7550000000000001  1.0000
  Br  Br12      1.0  0.78  0.0  0.7550000000000001  1.0000
  Br  Br13      1.0  0.5  0.22000000000000003  0.7550000000000001  1.0000
  Br  Br14      1.0  0.5  0.78  0.245  1.0000
  Br  Br15      1.0  0.5  0.78  0.7550000000000001  1.0000
  Br  Br16      1.0  0.5  0.22000000000000003  0.245  1.0000
  Br  Br17      1.0  0.72  0.5  0.245  1.0000
  Br  Br18      1.0  0.27999999999999997  0.5  0.245  1.0000
  Br  Br19      1.0  0.72  0.5  0.7550000000000001  1.0000
  Br  Br20      1.0  0.27999999999999997  0.5  0.7550000000000001  1.0000
  Br  Br21      1.0  0.0  0.72  0.7550000000000001  1.0000
  Br  Br22      1.0  0.0  0.27999999999999997  0.245  1.0000
  Br  Br23      1.0  0.0  0.27999999999999997  0.7550000000000001  1.0000
  Br  Br24      1.0  0.0  0.72  0.245  1.0000
