data_image0
_chemical_formula_structural       Li4Cu4V4O16
_chemical_formula_sum              "Li4 Cu4 V4 O16"
_cell_length_a       5.662
_cell_length_b       5.809
_cell_length_c       8.758
_cell_angle_alpha    90.0
_cell_angle_beta     90.0
_cell_angle_gamma    90.0

_space_group_name_H-M_alt    "P 1"
_space_group_IT_number       1

loop_
  _space_group_symop_operation_xyz
  'x, y, z'

loop_
  _atom_site_type_symbol
  _atom_site_label
  _atom_site_symmetry_multiplicity
  _atom_site_fract_x
  _atom_site_fract_y
  _atom_site_fract_z
  _atom_site_occupancy
  Li  Li1       1.0  0.25  0.25  0.75  1.0000
  Li  Li2       1.0  0.25  0.7499999999999999  0.25  1.0000
  Li  Li3       1.0  0.7500000000000001  0.7499999999999999  0.25  1.0000
  Li  Li4       1.0  0.7500000000000001  0.25  0.75  1.0000
  Cu  Cu1       1.0  0.0  0.0  0.0  1.0000
  Cu  Cu2       1.0  0.0  0.5  0.0  1.0000
  Cu  Cu3       1.0  0.5  0.5  0.5  1.0000
  Cu  Cu4       1.0  0.5  0.0  0.5  1.0000
  V   V1        1.0  0.0  0.25  0.386  1.0000
  V   V2        1.0  0.0  0.7499999999999999  0.614  1.0000
  V   V3        1.0  0.5  0.7499999999999999  0.886  1.0000
  V   V4        1.0  0.5  0.25  0.11399999999999999  1.0000
  O   O1        1.0  0.0  0.0164  0.2748  1.0000
  O   O2        1.0  0.0  0.9836  0.7252000000000001  1.0000
  O   O3        1.0  0.0  0.5164  0.7252000000000001  1.0000
  O   O4        1.0  0.0  0.4836  0.2748  1.0000
  O   O5        1.0  0.5  0.5164  0.7747999999999999  1.0000
  O   O6        1.0  0.5  0.4836  0.2252  1.0000
  O   O7        1.0  0.5  0.0164  0.2252  1.0000
  O   O8        1.0  0.5  0.9836  0.7747999999999999  1.0000
  O   O9        1.0  0.23520000000000005  0.25  0.9993  1.0000
  O   O10       1.0  0.23520000000000005  0.7499999999999999  0.0007  1.0000
  O   O11       1.0  0.7648  0.7499999999999999  0.0007  1.0000
  O   O12       1.0  0.7648  0.25  0.9993  1.0000
  O   O13       1.0  0.7352000000000002  0.7499999999999999  0.4993  1.0000
  O   O14       1.0  0.7352000000000002  0.25  0.5007  1.0000
  O   O15       1.0  0.2648  0.25  0.5007  1.0000
  O   O16       1.0  0.2648  0.7499999999999999  0.4993  1.0000
