data_image0
_chemical_formula_structural       Sm16Mo16O44
_chemical_formula_sum              "Sm16 Mo16 O44"
_cell_length_a       10.87
_cell_length_b       16.0957
_cell_length_c       5.7178
_cell_angle_alpha    90.0
_cell_angle_beta     90.0
_cell_angle_gamma    90.0

_space_group_name_H-M_alt    "P 1"
_space_group_IT_number       1

loop_
  _space_group_symop_operation_xyz
  'x, y, z'

loop_
  _atom_site_type_symbol
  _atom_site_label
  _atom_site_symmetry_multiplicity
  _atom_site_fract_x
  _atom_site_fract_y
  _atom_site_fract_z
  _atom_site_occupancy
  Sm  Sm1       1.0  0.31436000000000003  0.276361  0.5  1.0000
  Sm  Sm2       1.0  0.18563999999999997  0.7763610000000001  0.5  1.0000
  Sm  Sm3       1.0  0.81436  0.22363899999999998  0.5  1.0000
  Sm  Sm4       1.0  0.6856400000000001  0.7236389999999999  0.5  1.0000
  Sm  Sm5       1.0  0.08217000000000002  0.09822500000000003  0.5  1.0000
  Sm  Sm6       1.0  0.41783000000000003  0.598225  0.5  1.0000
  Sm  Sm7       1.0  0.5821700000000001  0.40177500000000005  0.5  1.0000
  Sm  Sm8       1.0  0.9178299999999999  0.901775  0.5  1.0000
  Sm  Sm9       1.0  0.09886  0.238725  0.0  1.0000
  Sm  Sm10      1.0  0.40114  0.738725  0.0  1.0000
  Sm  Sm11      1.0  0.59886  0.2612750000000001  0.0  1.0000
  Sm  Sm12      1.0  0.90114  0.761275  0.0  1.0000
  Sm  Sm13      1.0  0.8785200000000001  0.076819  0.0  1.0000
  Sm  Sm14      1.0  0.6214799999999999  0.576819  0.0  1.0000
  Sm  Sm15      1.0  0.37852  0.4231810000000001  0.0  1.0000
  Sm  Sm16      1.0  0.12147999999999992  0.923181  0.0  1.0000
  Mo  Mo1       1.0  0.36917  0.083761  0.27275  1.0000
  Mo  Mo2       1.0  0.13083  0.5837610000000001  0.27275  1.0000
  Mo  Mo3       1.0  0.8691700000000001  0.4162390000000001  0.27275  1.0000
  Mo  Mo4       1.0  0.6308300000000001  0.916239  0.27275  1.0000
  Mo  Mo5       1.0  0.6308300000000001  0.916239  0.7272499999999998  1.0000
  Mo  Mo6       1.0  0.8691700000000001  0.4162390000000001  0.7272499999999998  1.0000
  Mo  Mo7       1.0  0.13083  0.5837610000000001  0.7272499999999998  1.0000
  Mo  Mo8       1.0  0.36917  0.083761  0.7272499999999998  1.0000
  Mo  Mo9       1.0  0.59027  0.06676  0.5  1.0000
  Mo  Mo10      1.0  0.9097300000000001  0.56676  0.5  1.0000
  Mo  Mo11      1.0  0.09026999999999986  0.43324  0.5  1.0000
  Mo  Mo12      1.0  0.40973000000000004  0.93324  0.5  1.0000
  Mo  Mo13      1.0  0.58155  0.058760000000000014  0.0  1.0000
  Mo  Mo14      1.0  0.91845  0.5587600000000001  0.0  1.0000
  Mo  Mo15      1.0  0.08155000000000003  0.44123999999999997  0.0  1.0000
  Mo  Mo16      1.0  0.41845  0.94124  0.0  1.0000
  O   O1        1.0  0.22960000000000003  0.17264000000000004  0.262  1.0000
  O   O2        1.0  0.27040000000000003  0.67264  0.262  1.0000
  O   O3        1.0  0.7296000000000001  0.32736  0.262  1.0000
  O   O4        1.0  0.7704000000000001  0.8273600000000001  0.262  1.0000
  O   O5        1.0  0.7704000000000001  0.8273600000000001  0.738  1.0000
  O   O6        1.0  0.7296000000000001  0.32736  0.738  1.0000
  O   O7        1.0  0.27040000000000003  0.67264  0.738  1.0000
  O   O8        1.0  0.22960000000000003  0.17264000000000004  0.738  1.0000
  O   O9        1.0  0.18300000000000002  0.36642  0.24120000000000003  1.0000
  O   O10       1.0  0.31699999999999995  0.8664200000000001  0.24120000000000003  1.0000
  O   O11       1.0  0.6830000000000002  0.13357999999999998  0.24120000000000003  1.0000
  O   O12       1.0  0.8170000000000001  0.63358  0.24120000000000003  1.0000
  O   O13       1.0  0.8170000000000001  0.63358  0.7587999999999999  1.0000
  O   O14       1.0  0.6830000000000002  0.13357999999999998  0.7587999999999999  1.0000
  O   O15       1.0  0.31699999999999995  0.8664200000000001  0.7587999999999999  1.0000
  O   O16       1.0  0.18300000000000002  0.36642  0.7587999999999999  1.0000
  O   O17       1.0  0.4605  0.3265500000000001  0.2476  1.0000
  O   O18       1.0  0.039499999999999987  0.8265500000000001  0.2476  1.0000
  O   O19       1.0  0.9605000000000001  0.17344999999999994  0.2476  1.0000
  O   O20       1.0  0.5395  0.6734499999999999  0.2476  1.0000
  O   O21       1.0  0.5395  0.6734499999999999  0.7524  1.0000
  O   O22       1.0  0.9605000000000001  0.17344999999999994  0.7524  1.0000
  O   O23       1.0  0.039499999999999987  0.8265500000000001  0.7524  1.0000
  O   O24       1.0  0.4605  0.3265500000000001  0.7524  1.0000
  O   O25       1.0  0.4615  0.16157  0.5  1.0000
  O   O26       1.0  0.03849999999999998  0.66157  0.5  1.0000
  O   O27       1.0  0.9615  0.33843  0.5  1.0000
  O   O28       1.0  0.5385000000000001  0.83843  0.5  1.0000
  O   O29       1.0  0.26150000000000007  0.01366  0.5  1.0000
  O   O30       1.0  0.23849999999999996  0.51366  0.5  1.0000
  O   O31       1.0  0.7615000000000001  0.48634  0.5  1.0000
  O   O32       1.0  0.7384999999999999  0.9863400000000001  0.5  1.0000
  O   O33       1.0  0.4516000000000001  0.14968  0.0  1.0000
  O   O34       1.0  0.04839999999999995  0.64968  0.0  1.0000
  O   O35       1.0  0.9516  0.35031999999999996  0.0  1.0000
  O   O36       1.0  0.5484  0.8503200000000001  0.0  1.0000
  O   O37       1.0  0.2759  0.025500000000000005  0.0  1.0000
  O   O38       1.0  0.22410000000000005  0.5255  0.0  1.0000
  O   O39       1.0  0.7759  0.47450000000000003  0.0  1.0000
  O   O40       1.0  0.7241000000000001  0.9745  0.0  1.0000
  O   O41       1.0  0.5  0.5  0.2448  1.0000
  O   O42       1.0  0.0  0.0  0.2448  1.0000
  O   O43       1.0  0.5  0.5  0.7552000000000001  1.0000
  O   O44       1.0  0.0  0.0  0.7552000000000001  1.0000
