data_image0
_chemical_formula_structural       Sb2Cl8P2F12
_chemical_formula_sum              "Sb2 Cl8 P2 F12"
_cell_length_a       8.568
_cell_length_b       8.568
_cell_length_c       6.531
_cell_angle_alpha    90.0
_cell_angle_beta     90.0
_cell_angle_gamma    90.0

_space_group_name_H-M_alt    "P 1"
_space_group_IT_number       1

loop_
  _space_group_symop_operation_xyz
  'x, y, z'

loop_
  _atom_site_type_symbol
  _atom_site_label
  _atom_site_symmetry_multiplicity
  _atom_site_fract_x
  _atom_site_fract_y
  _atom_site_fract_z
  _atom_site_occupancy
  Sb  Sb1       1.0  0.75  0.75  0.8460999999999999  1.0000
  Sb  Sb2       1.0  0.25  0.25  0.15390000000000015  1.0000
  Cl  Cl1       1.0  0.0719  0.7059  0.3288  1.0000
  Cl  Cl2       1.0  0.7941  0.0719  0.3288  1.0000
  Cl  Cl3       1.0  0.4280999999999999  0.7941  0.3288  1.0000
  Cl  Cl4       1.0  0.7059  0.4280999999999999  0.3288  1.0000
  Cl  Cl5       1.0  0.9281  0.29410000000000003  0.6712  1.0000
  Cl  Cl6       1.0  0.20589999999999997  0.9281  0.6712  1.0000
  Cl  Cl7       1.0  0.5719  0.20589999999999997  0.6712  1.0000
  Cl  Cl8       1.0  0.29410000000000003  0.5719  0.6712  1.0000
  P   P1        1.0  0.25  0.75  0.5  1.0000
  P   P2        1.0  0.75  0.25  0.5  1.0000
  F   F1        1.0  0.9523  0.6697999999999998  0.8460999999999999  1.0000
  F   F2        1.0  0.8302000000000002  0.9523  0.8460999999999999  1.0000
  F   F3        1.0  0.5477  0.8302000000000002  0.8460999999999999  1.0000
  F   F4        1.0  0.6697999999999998  0.5477  0.8460999999999999  1.0000
  F   F5        1.0  0.04769999999999996  0.3302000000000001  0.15390000000000015  1.0000
  F   F6        1.0  0.16979999999999992  0.04769999999999996  0.15390000000000015  1.0000
  F   F7        1.0  0.45230000000000015  0.16979999999999992  0.15390000000000015  1.0000
  F   F8        1.0  0.3302000000000001  0.45230000000000015  0.15390000000000015  1.0000
  F   F9        1.0  0.75  0.75  0.552  1.0000
  F   F10       1.0  0.25  0.25  0.44799999999999995  1.0000
  F   F11       1.0  0.75  0.75  0.139  1.0000
  F   F12       1.0  0.25  0.25  0.8609999999999999  1.0000
