data_image0
_chemical_formula_structural       Mo6Cs2P12Si4O50
_chemical_formula_sum              "Mo6 Cs2 P12 Si4 O50"
_cell_length_a       8.2642
_cell_length_b       8.2642
_cell_length_c       17.559
_cell_angle_alpha    90.0
_cell_angle_beta     90.0
_cell_angle_gamma    119.99999999999999

_space_group_name_H-M_alt    "P 1"
_space_group_IT_number       1

loop_
  _space_group_symop_operation_xyz
  'x, y, z'

loop_
  _atom_site_type_symbol
  _atom_site_label
  _atom_site_symmetry_multiplicity
  _atom_site_fract_x
  _atom_site_fract_y
  _atom_site_fract_z
  _atom_site_occupancy
  Mo  Mo1       1.0  0.3333  0.6667  0.02137  1.0000
  Mo  Mo2       1.0  0.6667000000000001  0.3333  0.52137  1.0000
  Mo  Mo3       1.0  0.6667  0.33329999999999993  0.9786299999999999  1.0000
  Mo  Mo4       1.0  0.3332999999999999  0.6666999999999998  0.47863000000000006  1.0000
  Mo  Mo5       1.0  0.6667  0.33329999999999993  0.25  1.0000
  Mo  Mo6       1.0  0.3332999999999999  0.6666999999999998  0.75  1.0000
  Cs  Cs1       1.0  0.3333  0.6667  0.25  1.0000
  Cs  Cs2       1.0  0.6667000000000001  0.3333  0.75  1.0000
  P   P1        1.0  0.37931  0.32974  0.11024  0.9670
  P   P2        1.0  0.6702600000000001  0.049569999999999996  0.11024  0.9670
  P   P3        1.0  0.95043  0.62069  0.11024  0.9670
  P   P4        1.0  0.32974  0.3793099999999999  0.61024  0.9670
  P   P5        1.0  0.6206899999999999  0.9504299999999999  0.61024  0.9670
  P   P6        1.0  0.04957000000000001  0.6702600000000001  0.61024  0.9670
  P   P7        1.0  0.62069  0.6702600000000001  0.88976  0.9670
  P   P8        1.0  0.3297399999999999  0.9504299999999999  0.88976  0.9670
  P   P9        1.0  0.04956999999999998  0.3793099999999999  0.88976  0.9670
  P   P10       1.0  0.6702600000000001  0.62069  0.38976  0.9670
  P   P11       1.0  0.37931  0.049569999999999996  0.38976  0.9670
  P   P12       1.0  0.95043  0.32974  0.38976  0.9670
  Si  Si1       1.0  0.0  0.0  0.0903  1.0000
  Si  Si2       1.0  0.0  0.0  0.5903  1.0000
  Si  Si3       1.0  0.0  0.0  0.9097  1.0000
  Si  Si4       1.0  0.0  0.0  0.4097  1.0000
  O   O1        1.0  0.11094999999999997  0.5884199999999999  0.09285  1.0000
  O   O2        1.0  0.41158  0.5225299999999999  0.09285  1.0000
  O   O3        1.0  0.47747  0.8890499999999999  0.09285  1.0000
  O   O4        1.0  0.5884199999999999  0.11094999999999995  0.59285  1.0000
  O   O5        1.0  0.8890499999999999  0.47747  0.59285  1.0000
  O   O6        1.0  0.5225299999999999  0.41158  0.59285  1.0000
  O   O7        1.0  0.88905  0.41158  0.90715  1.0000
  O   O8        1.0  0.5884199999999999  0.47747  0.90715  1.0000
  O   O9        1.0  0.5225299999999999  0.11094999999999995  0.90715  1.0000
  O   O10       1.0  0.41157999999999995  0.8890499999999999  0.40715  1.0000
  O   O11       1.0  0.11094999999999995  0.5225299999999999  0.40715  1.0000
  O   O12       1.0  0.47747000000000006  0.5884199999999999  0.40715  1.0000
  O   O13       1.0  0.80709  0.24312999999999996  0.45308  1.0000
  O   O14       1.0  0.75687  0.56396  0.45308  1.0000
  O   O15       1.0  0.43604  0.19291  0.45308  1.0000
  O   O16       1.0  0.24312999999999993  0.8070899999999999  0.9530799999999998  1.0000
  O   O17       1.0  0.19291  0.4360399999999999  0.9530799999999998  1.0000
  O   O18       1.0  0.5639599999999999  0.7568699999999999  0.9530799999999998  1.0000
  O   O19       1.0  0.19290999999999997  0.7568699999999999  0.5469200000000001  1.0000
  O   O20       1.0  0.24312999999999999  0.4360399999999999  0.5469200000000001  1.0000
  O   O21       1.0  0.5639599999999999  0.8070899999999999  0.5469200000000001  1.0000
  O   O22       1.0  0.75687  0.19291  0.04692000000000002  1.0000
  O   O23       1.0  0.80709  0.56396  0.04692000000000002  1.0000
  O   O24       1.0  0.43604  0.24312999999999996  0.04692000000000002  1.0000
  O   O25       1.0  0.46617  0.33466  0.18691  1.0000
  O   O26       1.0  0.66534  0.13150999999999993  0.18691  1.0000
  O   O27       1.0  0.86849  0.53383  0.18691  1.0000
  O   O28       1.0  0.33466  0.4661699999999999  0.68691  1.0000
  O   O29       1.0  0.53383  0.8684899999999999  0.68691  1.0000
  O   O30       1.0  0.13150999999999996  0.66534  0.68691  1.0000
  O   O31       1.0  0.53383  0.66534  0.81309  1.0000
  O   O32       1.0  0.33465999999999996  0.8684899999999999  0.81309  1.0000
  O   O33       1.0  0.13150999999999993  0.4661699999999999  0.81309  1.0000
  O   O34       1.0  0.66534  0.53383  0.31309  1.0000
  O   O35       1.0  0.46617  0.13150999999999993  0.31309  1.0000
  O   O36       1.0  0.86849  0.33466  0.31309  1.0000
  O   O37       1.0  0.0  0.0  0.0  1.0000
  O   O38       1.0  0.0  0.0  0.5  1.0000
  O   O39       1.0  0.03543999999999993  0.8377099999999998  0.12292000000000002  1.0000
  O   O40       1.0  0.16228999999999996  0.19772999999999996  0.12292000000000002  1.0000
  O   O41       1.0  0.8022699999999999  0.9645599999999999  0.12292000000000002  1.0000
  O   O42       1.0  0.83771  0.035439999999999985  0.62292  1.0000
  O   O43       1.0  0.96456  0.80227  0.62292  1.0000
  O   O44       1.0  0.19773  0.16229  0.62292  1.0000
  O   O45       1.0  0.96456  0.16229  0.87708  1.0000
  O   O46       1.0  0.83771  0.80227  0.87708  1.0000
  O   O47       1.0  0.19773  0.035439999999999985  0.87708  1.0000
  O   O48       1.0  0.16228999999999993  0.9645599999999999  0.37707999999999997  1.0000
  O   O49       1.0  0.03543999999999998  0.19772999999999996  0.37707999999999997  1.0000
  O   O50       1.0  0.8022699999999999  0.8377099999999998  0.37707999999999997  1.0000
