data_image0
_chemical_formula_structural       Te4Mo20O64
_chemical_formula_sum              "Te4 Mo20 O64"
_cell_length_a       10.038
_cell_length_b       14.431
_cell_length_c       8.1617
_cell_angle_alpha    90.0
_cell_angle_beta     90.84999999999998
_cell_angle_gamma    90.0

_space_group_name_H-M_alt    "P 1"
_space_group_IT_number       1

loop_
  _space_group_symop_operation_xyz
  'x, y, z'

loop_
  _atom_site_type_symbol
  _atom_site_label
  _atom_site_symmetry_multiplicity
  _atom_site_fract_x
  _atom_site_fract_y
  _atom_site_fract_z
  _atom_site_occupancy
  Te  Te1       1.0  0.01691000000000001  0.33611  0.21163  1.0000
  Te  Te2       1.0  0.9830900000000001  0.83611  0.28837  1.0000
  Te  Te3       1.0  0.9830900000000001  0.66389  0.78837  1.0000
  Te  Te4       1.0  0.01691000000000001  0.16388999999999998  0.71163  1.0000
  Mo  Mo1       1.0  0.99954  0.10839  0.24639  1.0000
  Mo  Mo2       1.0  0.0004600000000000004  0.60839  0.25361  1.0000
  Mo  Mo3       1.0  0.00046000000000000213  0.89161  0.7536100000000001  1.0000
  Mo  Mo4       1.0  0.99954  0.39161  0.74639  1.0000
  Mo  Mo5       1.0  0.67063  0.25122  0.2797100000000001  1.0000
  Mo  Mo6       1.0  0.32937000000000005  0.75122  0.22028999999999993  1.0000
  Mo  Mo7       1.0  0.32937000000000005  0.74878  0.7202899999999999  1.0000
  Mo  Mo8       1.0  0.67063  0.24878  0.7797100000000001  1.0000
  Mo  Mo9       1.0  0.31418000000000007  0.25182  0.19297  1.0000
  Mo  Mo10      1.0  0.6858199999999999  0.7518199999999999  0.30703  1.0000
  Mo  Mo11      1.0  0.6858199999999999  0.7481800000000002  0.80703  1.0000
  Mo  Mo12      1.0  0.31418000000000007  0.24818  0.69297  1.0000
  Mo  Mo13      1.0  0.3267  0.0009  0.29939  1.0000
  Mo  Mo14      1.0  0.6733  0.5009  0.20061000000000004  1.0000
  Mo  Mo15      1.0  0.6733  0.9991  0.70061  1.0000
  Mo  Mo16      1.0  0.3267  0.4991  0.79939  1.0000
  Mo  Mo17      1.0  0.6808  0.99867  0.19891  1.0000
  Mo  Mo18      1.0  0.31920000000000004  0.49867  0.30108999999999997  1.0000
  Mo  Mo19      1.0  0.31920000000000004  0.00133  0.80109  1.0000
  Mo  Mo20      1.0  0.6808  0.50133  0.69891  1.0000
  O   O1        1.0  0.11620000000000001  0.2318  0.23300000000000004  1.0000
  O   O2        1.0  0.8838  0.7318  0.26699999999999996  1.0000
  O   O3        1.0  0.8838  0.7682  0.767  1.0000
  O   O4        1.0  0.11620000000000001  0.2682  0.7330000000000001  1.0000
  O   O5        1.0  0.8694000000000002  0.2263  0.2295  1.0000
  O   O6        1.0  0.13059999999999994  0.7263  0.27049999999999996  1.0000
  O   O7        1.0  0.13059999999999994  0.7737  0.7705000000000001  1.0000
  O   O8        1.0  0.8694000000000002  0.2737  0.7295  1.0000
  O   O9        1.0  0.9902  0.3409  0.9899000000000001  1.0000
  O   O10       1.0  0.0098  0.8409  0.5101  1.0000
  O   O11       1.0  0.0098  0.6591  0.010100000000000003  1.0000
  O   O12       1.0  0.9902  0.15910000000000002  0.48990000000000006  1.0000
  O   O13       1.0  0.7455  0.3737  0.2298  1.0000
  O   O14       1.0  0.25449999999999995  0.8736999999999999  0.2702  1.0000
  O   O15       1.0  0.25449999999999995  0.6263000000000001  0.7702  1.0000
  O   O16       1.0  0.7455  0.12630000000000002  0.7298000000000001  1.0000
  O   O17       1.0  0.8595  0.0334  0.2856  1.0000
  O   O18       1.0  0.14049999999999996  0.5334  0.21439999999999998  1.0000
  O   O19       1.0  0.14049999999999996  0.9666  0.7143999999999999  1.0000
  O   O20       1.0  0.8595  0.4666  0.7856000000000001  1.0000
  O   O21       1.0  0.6744000000000001  0.24740000000000004  0.9872  1.0000
  O   O22       1.0  0.3255999999999999  0.7474000000000002  0.5128  1.0000
  O   O23       1.0  0.3255999999999999  0.7525999999999999  0.0128  1.0000
  O   O24       1.0  0.6744000000000001  0.25259999999999994  0.4872000000000001  1.0000
  O   O25       1.0  0.1326  0.0328  0.3048  1.0000
  O   O26       1.0  0.8674000000000001  0.5328  0.19519999999999998  1.0000
  O   O27       1.0  0.8674000000000001  0.9672  0.6952  1.0000
  O   O28       1.0  0.1326  0.4672  0.8048  1.0000
  O   O29       1.0  0.009200000000000002  0.1031  0.0398  1.0000
  O   O30       1.0  0.9908  0.6031  0.4602  1.0000
  O   O31       1.0  0.9908  0.8969  0.9602  1.0000
  O   O32       1.0  0.009200000000000002  0.3969000000000001  0.5398000000000001  1.0000
  O   O33       1.0  0.4951  0.2792  0.2355  1.0000
  O   O34       1.0  0.5049  0.7792  0.2645  1.0000
  O   O35       1.0  0.5049  0.7208  0.7645  1.0000
  O   O36       1.0  0.4951  0.2208  0.7355  1.0000
  O   O37       1.0  0.5007  0.4738  0.285  1.0000
  O   O38       1.0  0.49929999999999997  0.9738000000000001  0.21500000000000002  1.0000
  O   O39       1.0  0.49929999999999997  0.5262  0.7150000000000001  1.0000
  O   O40       1.0  0.5007  0.0262  0.7849999999999999  1.0000
  O   O41       1.0  0.6440000000000001  0.1254  0.2369  1.0000
  O   O42       1.0  0.35599999999999987  0.6254  0.2631  1.0000
  O   O43       1.0  0.35599999999999987  0.8746  0.7631  1.0000
  O   O44       1.0  0.6440000000000001  0.3746  0.7369000000000001  1.0000
  O   O45       1.0  0.3477  0.1269  0.2437  1.0000
  O   O46       1.0  0.6523  0.6269  0.2563  1.0000
  O   O47       1.0  0.6523  0.8731  0.7563000000000001  1.0000
  O   O48       1.0  0.3477  0.3731  0.7437  1.0000
  O   O49       1.0  0.28900000000000003  0.9997  0.0068  1.0000
  O   O50       1.0  0.711  0.4997  0.4932000000000001  1.0000
  O   O51       1.0  0.711  0.0003  0.9932000000000001  1.0000
  O   O52       1.0  0.28900000000000003  0.5003  0.5068  1.0000
  O   O53       1.0  0.262  0.3772  0.2401  1.0000
  O   O54       1.0  0.7380000000000001  0.8772  0.2599  1.0000
  O   O55       1.0  0.7380000000000001  0.6228  0.7599000000000001  1.0000
  O   O56       1.0  0.262  0.12280000000000002  0.7401  1.0000
  O   O57       1.0  0.3539000000000001  0.4989  0.004  1.0000
  O   O58       1.0  0.6460999999999999  0.9989  0.49600000000000005  1.0000
  O   O59       1.0  0.6460999999999999  0.5011  0.996  1.0000
  O   O60       1.0  0.3539000000000001  0.0010999999999999899  0.504  1.0000
  O   O61       1.0  0.31290000000000007  0.2519  0.4845000000000001  1.0000
  O   O62       1.0  0.6870999999999999  0.7519  0.01549999999999996  1.0000
  O   O63       1.0  0.6870999999999999  0.7481  0.5155  1.0000
  O   O64       1.0  0.31290000000000007  0.2481  0.9845000000000002  1.0000
