data_image0
_chemical_formula_structural       Co36S32
_chemical_formula_sum              "Co36 S32"
_cell_length_a       9.927
_cell_length_b       9.927
_cell_length_c       9.927
_cell_angle_alpha    90.0
_cell_angle_beta     90.0
_cell_angle_gamma    90.0

_space_group_name_H-M_alt    "P 1"
_space_group_IT_number       1

loop_
  _space_group_symop_operation_xyz
  'x, y, z'

loop_
  _atom_site_type_symbol
  _atom_site_label
  _atom_site_symmetry_multiplicity
  _atom_site_fract_x
  _atom_site_fract_y
  _atom_site_fract_z
  _atom_site_occupancy
  Co  Co1       1.0  0.5  0.5  0.5  1.0000
  Co  Co2       1.0  0.5  0.0  0.0  1.0000
  Co  Co3       1.0  0.0  0.5  0.0  1.0000
  Co  Co4       1.0  0.0  0.0  0.5  1.0000
  Co  Co5       1.0  0.125  0.125  0.125  1.0000
  Co  Co6       1.0  0.125  0.8750000000000001  0.8750000000000001  1.0000
  Co  Co7       1.0  0.8750000000000001  0.125  0.8750000000000001  1.0000
  Co  Co8       1.0  0.8750000000000001  0.8750000000000001  0.125  1.0000
  Co  Co9       1.0  0.8750000000000001  0.8750000000000001  0.8750000000000001  1.0000
  Co  Co10      1.0  0.8750000000000001  0.125  0.125  1.0000
  Co  Co11      1.0  0.125  0.8750000000000001  0.125  1.0000
  Co  Co12      1.0  0.125  0.125  0.8750000000000001  1.0000
  Co  Co13      1.0  0.125  0.625  0.625  1.0000
  Co  Co14      1.0  0.625  0.125  0.625  1.0000
  Co  Co15      1.0  0.625  0.625  0.125  1.0000
  Co  Co16      1.0  0.125  0.375  0.375  1.0000
  Co  Co17      1.0  0.625  0.8750000000000001  0.375  1.0000
  Co  Co18      1.0  0.625  0.375  0.8750000000000001  1.0000
  Co  Co19      1.0  0.8750000000000001  0.625  0.375  1.0000
  Co  Co20      1.0  0.375  0.125  0.375  1.0000
  Co  Co21      1.0  0.375  0.625  0.8750000000000001  1.0000
  Co  Co22      1.0  0.8750000000000001  0.375  0.625  1.0000
  Co  Co23      1.0  0.375  0.8750000000000001  0.625  1.0000
  Co  Co24      1.0  0.375  0.375  0.125  1.0000
  Co  Co25      1.0  0.8750000000000001  0.375  0.375  1.0000
  Co  Co26      1.0  0.375  0.8750000000000001  0.375  1.0000
  Co  Co27      1.0  0.375  0.375  0.8750000000000001  1.0000
  Co  Co28      1.0  0.8750000000000001  0.625  0.625  1.0000
  Co  Co29      1.0  0.375  0.125  0.625  1.0000
  Co  Co30      1.0  0.375  0.625  0.125  1.0000
  Co  Co31      1.0  0.125  0.375  0.625  1.0000
  Co  Co32      1.0  0.625  0.8750000000000001  0.625  1.0000
  Co  Co33      1.0  0.625  0.375  0.125  1.0000
  Co  Co34      1.0  0.125  0.625  0.375  1.0000
  Co  Co35      1.0  0.625  0.125  0.375  1.0000
  Co  Co36      1.0  0.625  0.625  0.8750000000000001  1.0000
  S   S1        1.0  0.25  0.25  0.25  1.0000
  S   S2        1.0  0.25  0.75  0.75  1.0000
  S   S3        1.0  0.75  0.25  0.75  1.0000
  S   S4        1.0  0.75  0.75  0.25  1.0000
  S   S5        1.0  0.75  0.75  0.75  1.0000
  S   S6        1.0  0.75  0.25  0.25  1.0000
  S   S7        1.0  0.25  0.75  0.25  1.0000
  S   S8        1.0  0.25  0.25  0.75  1.0000
  S   S9        1.0  0.25  0.0  0.0  1.0000
  S   S10       1.0  0.0  0.0  0.25  1.0000
  S   S11       1.0  0.0  0.25  0.0  1.0000
  S   S12       1.0  0.0  0.0  0.75  1.0000
  S   S13       1.0  0.0  0.75  0.0  1.0000
  S   S14       1.0  0.75  0.0  0.0  1.0000
  S   S15       1.0  0.25  0.5  0.5  1.0000
  S   S16       1.0  0.75  0.0  0.5  1.0000
  S   S17       1.0  0.75  0.5  0.0  1.0000
  S   S18       1.0  0.0  0.5  0.75  1.0000
  S   S19       1.0  0.5  0.0  0.75  1.0000
  S   S20       1.0  0.5  0.5  0.25  1.0000
  S   S21       1.0  0.0  0.75  0.5  1.0000
  S   S22       1.0  0.5  0.25  0.5  1.0000
  S   S23       1.0  0.5  0.75  0.0  1.0000
  S   S24       1.0  0.0  0.5  0.25  1.0000
  S   S25       1.0  0.5  0.0  0.25  1.0000
  S   S26       1.0  0.5  0.5  0.75  1.0000
  S   S27       1.0  0.0  0.25  0.5  1.0000
  S   S28       1.0  0.5  0.75  0.5  1.0000
  S   S29       1.0  0.5  0.25  0.0  1.0000
  S   S30       1.0  0.75  0.5  0.5  1.0000
  S   S31       1.0  0.25  0.0  0.5  1.0000
  S   S32       1.0  0.25  0.5  0.0  1.0000
