data_image0
_chemical_formula_structural       Sc8Nb16Sn20
_chemical_formula_sum              "Sc8 Nb16 Sn20"
_cell_length_a       8.716
_cell_length_b       18.718
_cell_length_c       5.693
_cell_angle_alpha    90.0
_cell_angle_beta     90.0
_cell_angle_gamma    90.0

_space_group_name_H-M_alt    "P 1"
_space_group_IT_number       1

loop_
  _space_group_symop_operation_xyz
  'x, y, z'

loop_
  _atom_site_type_symbol
  _atom_site_label
  _atom_site_symmetry_multiplicity
  _atom_site_fract_x
  _atom_site_fract_y
  _atom_site_fract_z
  _atom_site_occupancy
  Sc  Sc1       1.0  0.11144  0.14639  0.0  1.0000
  Sc  Sc2       1.0  0.88856  0.85361  0.0  1.0000
  Sc  Sc3       1.0  0.38856  0.64639  0.0  1.0000
  Sc  Sc4       1.0  0.61144  0.35361  0.0  1.0000
  Sc  Sc5       1.0  0.61144  0.64639  0.5  1.0000
  Sc  Sc6       1.0  0.38856  0.35361  0.5  1.0000
  Sc  Sc7       1.0  0.88856  0.14639  0.5  1.0000
  Sc  Sc8       1.0  0.11144  0.85361  0.5  1.0000
  Nb  Nb1       1.0  0.5  0.19069  0.25  1.0000
  Nb  Nb2       1.0  0.5  0.80931  0.25  1.0000
  Nb  Nb3       1.0  0.0  0.69069  0.7500000000000001  1.0000
  Nb  Nb4       1.0  0.0  0.30931  0.7500000000000001  1.0000
  Nb  Nb5       1.0  0.5  0.80931  0.7500000000000001  1.0000
  Nb  Nb6       1.0  0.5  0.19069  0.7500000000000001  1.0000
  Nb  Nb7       1.0  0.0  0.30931  0.25  1.0000
  Nb  Nb8       1.0  0.0  0.69069  0.25  1.0000
  Nb  Nb9       1.0  0.26122  0.06536  0.5  0.7400
  Nb  Nb10      1.0  0.73878  0.93464  0.5  0.7400
  Nb  Nb11      1.0  0.23877999999999996  0.56536  0.5  0.7400
  Nb  Nb12      1.0  0.76122  0.43463999999999997  0.5  0.7400
  Nb  Nb13      1.0  0.76122  0.56536  0.0  0.7400
  Nb  Nb14      1.0  0.23877999999999996  0.43463999999999997  0.0  0.7400
  Nb  Nb15      1.0  0.73878  0.06536  0.0  0.7400
  Nb  Nb16      1.0  0.26122  0.93464  0.0  0.7400
  Sn  Sn1       1.0  0.2016  0.212278  0.5  1.0000
  Sn  Sn2       1.0  0.7983999999999999  0.7877219999999999  0.5  1.0000
  Sn  Sn3       1.0  0.2984  0.712278  0.5  1.0000
  Sn  Sn4       1.0  0.7016  0.28772200000000003  0.5  1.0000
  Sn  Sn5       1.0  0.7016  0.712278  0.0  1.0000
  Sn  Sn6       1.0  0.2984  0.28772200000000003  0.0  1.0000
  Sn  Sn7       1.0  0.7983999999999999  0.212278  0.0  1.0000
  Sn  Sn8       1.0  0.2016  0.7877219999999999  0.0  1.0000
  Sn  Sn9       1.0  0.39829  0.068443  0.0  1.0000
  Sn  Sn10      1.0  0.60171  0.931557  0.0  1.0000
  Sn  Sn11      1.0  0.10171000000000002  0.5684429999999999  0.0  1.0000
  Sn  Sn12      1.0  0.89829  0.431557  0.0  1.0000
  Sn  Sn13      1.0  0.89829  0.5684429999999999  0.5  1.0000
  Sn  Sn14      1.0  0.10171000000000002  0.431557  0.5  1.0000
  Sn  Sn15      1.0  0.60171  0.068443  0.5  1.0000
  Sn  Sn16      1.0  0.39829  0.931557  0.5  1.0000
  Sn  Sn17      1.0  0.0  0.0  0.25  1.0000
  Sn  Sn18      1.0  0.5  0.5  0.7500000000000001  1.0000
  Sn  Sn19      1.0  0.0  0.0  0.7500000000000001  1.0000
  Sn  Sn20      1.0  0.5  0.5  0.25  1.0000
