data_image0
_chemical_formula_structural       Gd104Fe80C104
_chemical_formula_sum              "Gd104 Fe80 C104"
_cell_length_a       9.2299
_cell_length_b       16.0158
_cell_length_c       31.6935
_cell_angle_alpha    90.0
_cell_angle_beta     90.0
_cell_angle_gamma    90.0

_space_group_name_H-M_alt    "P 1"
_space_group_IT_number       1

loop_
  _space_group_symop_operation_xyz
  'x, y, z'

loop_
  _atom_site_type_symbol
  _atom_site_label
  _atom_site_symmetry_multiplicity
  _atom_site_fract_x
  _atom_site_fract_y
  _atom_site_fract_z
  _atom_site_occupancy
  Gd  Gd1       1.0  0.09311  0.0  0.0  1.0000
  Gd  Gd2       1.0  0.34311  0.25  0.25  1.0000
  Gd  Gd3       1.0  0.09311  0.5  0.5  1.0000
  Gd  Gd4       1.0  0.34311  0.75  0.7500000000000001  1.0000
  Gd  Gd5       1.0  0.59311  0.0  0.5  1.0000
  Gd  Gd6       1.0  0.84311  0.25  0.7500000000000001  1.0000
  Gd  Gd7       1.0  0.59311  0.5  0.0  1.0000
  Gd  Gd8       1.0  0.84311  0.75  0.25  1.0000
  Gd  Gd9       1.0  0.28557  0.11473  0.9255780000000002  1.0000
  Gd  Gd10      1.0  0.28557  0.88527  0.07442199999999989  1.0000
  Gd  Gd11      1.0  0.53557  0.36473  0.32442199999999993  1.0000
  Gd  Gd12      1.0  0.53557  0.13526999999999997  0.17557800000000023  1.0000
  Gd  Gd13      1.0  0.28557  0.61473  0.4255780000000003  1.0000
  Gd  Gd14      1.0  0.28557  0.38527  0.574422  1.0000
  Gd  Gd15      1.0  0.53557  0.86473  0.824422  1.0000
  Gd  Gd16      1.0  0.53557  0.63527  0.6755780000000003  1.0000
  Gd  Gd17      1.0  0.78557  0.11473  0.4255780000000003  1.0000
  Gd  Gd18      1.0  0.78557  0.88527  0.574422  1.0000
  Gd  Gd19      1.0  0.03556999999999988  0.36473  0.824422  1.0000
  Gd  Gd20      1.0  0.03556999999999988  0.13526999999999997  0.6755780000000003  1.0000
  Gd  Gd21      1.0  0.78557  0.61473  0.9255780000000002  1.0000
  Gd  Gd22      1.0  0.78557  0.38527  0.07442199999999989  1.0000
  Gd  Gd23      1.0  0.03556999999999988  0.86473  0.32442199999999993  1.0000
  Gd  Gd24      1.0  0.03556999999999988  0.63527  0.17557800000000023  1.0000
  Gd  Gd25      1.0  0.27868  0.12055  0.08744300000000003  1.0000
  Gd  Gd26      1.0  0.27868  0.87945  0.912557  1.0000
  Gd  Gd27      1.0  0.52868  0.37055  0.16255699999999998  1.0000
  Gd  Gd28      1.0  0.52868  0.12945  0.33744300000000005  1.0000
  Gd  Gd29      1.0  0.27868  0.62055  0.5874430000000002  1.0000
  Gd  Gd30      1.0  0.27868  0.37945  0.412557  1.0000
  Gd  Gd31      1.0  0.52868  0.87055  0.662557  1.0000
  Gd  Gd32      1.0  0.52868  0.62945  0.8374430000000002  1.0000
  Gd  Gd33      1.0  0.77868  0.12055  0.5874430000000002  1.0000
  Gd  Gd34      1.0  0.77868  0.87945  0.412557  1.0000
  Gd  Gd35      1.0  0.02868000000000004  0.37055  0.662557  1.0000
  Gd  Gd36      1.0  0.02868000000000004  0.12945  0.8374430000000002  1.0000
  Gd  Gd37      1.0  0.77868  0.62055  0.08744300000000003  1.0000
  Gd  Gd38      1.0  0.77868  0.37945  0.912557  1.0000
  Gd  Gd39      1.0  0.02868000000000004  0.87055  0.16255699999999998  1.0000
  Gd  Gd40      1.0  0.02868000000000004  0.62945  0.33744300000000005  1.0000
  Gd  Gd41      1.0  0.55399  0.84732  0.9979770000000002  1.0000
  Gd  Gd42      1.0  0.55399  0.15268000000000004  0.002022999999999886  1.0000
  Gd  Gd43      1.0  0.80399  0.09731999999999984  0.2520229999999999  1.0000
  Gd  Gd44      1.0  0.80399  0.40268000000000004  0.24797700000000014  1.0000
  Gd  Gd45      1.0  0.55399  0.34731999999999985  0.49797700000000017  1.0000
  Gd  Gd46      1.0  0.55399  0.65268  0.5020229999999999  1.0000
  Gd  Gd47      1.0  0.80399  0.5973199999999999  0.752023  1.0000
  Gd  Gd48      1.0  0.80399  0.90268  0.7479770000000002  1.0000
  Gd  Gd49      1.0  0.05398999999999998  0.84732  0.49797700000000017  1.0000
  Gd  Gd50      1.0  0.05398999999999998  0.15268000000000004  0.5020229999999999  1.0000
  Gd  Gd51      1.0  0.30399  0.09731999999999984  0.752023  1.0000
  Gd  Gd52      1.0  0.30399  0.40268000000000004  0.7479770000000002  1.0000
  Gd  Gd53      1.0  0.05398999999999998  0.34731999999999985  0.9979770000000002  1.0000
  Gd  Gd54      1.0  0.05398999999999998  0.65268  0.002022999999999886  1.0000
  Gd  Gd55      1.0  0.30399  0.5973199999999999  0.2520229999999999  1.0000
  Gd  Gd56      1.0  0.30399  0.90268  0.24797700000000014  1.0000
  Gd  Gd57      1.0  0.65018  0.08638  0.809615  1.0000
  Gd  Gd58      1.0  0.65018  0.91362  0.19038500000000005  1.0000
  Gd  Gd59      1.0  0.90018  0.33638  0.440385  1.0000
  Gd  Gd60      1.0  0.90018  0.16361999999999996  0.059614999999999974  1.0000
  Gd  Gd61      1.0  0.65018  0.58638  0.30961500000000003  1.0000
  Gd  Gd62      1.0  0.65018  0.41362  0.6903850000000001  1.0000
  Gd  Gd63      1.0  0.90018  0.83638  0.9403850000000001  1.0000
  Gd  Gd64      1.0  0.90018  0.66362  0.559615  1.0000
  Gd  Gd65      1.0  0.15017999999999998  0.08638  0.30961500000000003  1.0000
  Gd  Gd66      1.0  0.15017999999999998  0.91362  0.6903850000000001  1.0000
  Gd  Gd67      1.0  0.40018  0.33638  0.9403850000000001  1.0000
  Gd  Gd68      1.0  0.40018  0.16361999999999996  0.559615  1.0000
  Gd  Gd69      1.0  0.15017999999999998  0.58638  0.809615  1.0000
  Gd  Gd70      1.0  0.15017999999999998  0.41362  0.19038500000000005  1.0000
  Gd  Gd71      1.0  0.40018  0.83638  0.440385  1.0000
  Gd  Gd72      1.0  0.40018  0.66362  0.059614999999999974  1.0000
  Gd  Gd73      1.0  0.14034  0.0815  0.190732  1.0000
  Gd  Gd74      1.0  0.14034  0.9184999999999999  0.8092680000000001  1.0000
  Gd  Gd75      1.0  0.39034  0.3315  0.059267999999999994  1.0000
  Gd  Gd76      1.0  0.39034  0.16849999999999998  0.44073200000000007  1.0000
  Gd  Gd77      1.0  0.14034  0.5815  0.690732  1.0000
  Gd  Gd78      1.0  0.14034  0.4185  0.30926800000000004  1.0000
  Gd  Gd79      1.0  0.39034  0.8315  0.5592680000000001  1.0000
  Gd  Gd80      1.0  0.39034  0.6684999999999999  0.9407320000000001  1.0000
  Gd  Gd81      1.0  0.64034  0.0815  0.690732  1.0000
  Gd  Gd82      1.0  0.64034  0.9184999999999999  0.30926800000000004  1.0000
  Gd  Gd83      1.0  0.89034  0.3315  0.5592680000000001  1.0000
  Gd  Gd84      1.0  0.89034  0.16849999999999998  0.9407320000000001  1.0000
  Gd  Gd85      1.0  0.64034  0.5815  0.190732  1.0000
  Gd  Gd86      1.0  0.64034  0.4185  0.8092680000000001  1.0000
  Gd  Gd87      1.0  0.89034  0.8315  0.059267999999999994  1.0000
  Gd  Gd88      1.0  0.89034  0.6684999999999999  0.44073200000000007  1.0000
  Gd  Gd89      1.0  0.63856  0.99964  0.915395  1.0000
  Gd  Gd90      1.0  0.63856  0.00036000000000002697  0.08460500000000004  1.0000
  Gd  Gd91      1.0  0.8885600000000001  0.24963999999999986  0.33460500000000004  1.0000
  Gd  Gd92      1.0  0.8885600000000001  0.25036  0.165395  1.0000
  Gd  Gd93      1.0  0.63856  0.49963999999999986  0.415395  1.0000
  Gd  Gd94      1.0  0.63856  0.50036  0.5846050000000002  1.0000
  Gd  Gd95      1.0  0.8885600000000001  0.7496399999999999  0.8346050000000002  1.0000
  Gd  Gd96      1.0  0.8885600000000001  0.75036  0.665395  1.0000
  Gd  Gd97      1.0  0.13856000000000002  0.99964  0.415395  1.0000
  Gd  Gd98      1.0  0.13856000000000002  0.00036000000000002697  0.5846050000000002  1.0000
  Gd  Gd99      1.0  0.38856  0.24963999999999986  0.8346050000000002  1.0000
  Gd  Gd100     1.0  0.38856  0.25036  0.665395  1.0000
  Gd  Gd101     1.0  0.13856000000000002  0.49963999999999986  0.915395  1.0000
  Gd  Gd102     1.0  0.13856000000000002  0.50036  0.08460500000000004  1.0000
  Gd  Gd103     1.0  0.38856  0.7496399999999999  0.33460500000000004  1.0000
  Gd  Gd104     1.0  0.38856  0.75036  0.165395  1.0000
  Fe  Fe1       1.0  0.7891  0.0  0.0  1.0000
  Fe  Fe2       1.0  0.03909999999999991  0.25  0.25  1.0000
  Fe  Fe3       1.0  0.7891  0.5  0.5  1.0000
  Fe  Fe4       1.0  0.03909999999999991  0.75  0.7500000000000001  1.0000
  Fe  Fe5       1.0  0.2890999999999999  0.0  0.5  1.0000
  Fe  Fe6       1.0  0.5390999999999999  0.25  0.7500000000000001  1.0000
  Fe  Fe7       1.0  0.2890999999999999  0.5  0.0  1.0000
  Fe  Fe8       1.0  0.5390999999999999  0.75  0.25  1.0000
  Fe  Fe9       1.0  0.59614  0.19097  0.89926  1.0000
  Fe  Fe10      1.0  0.59614  0.80903  0.10074000000000005  1.0000
  Fe  Fe11      1.0  0.84614  0.44097  0.35074000000000005  1.0000
  Fe  Fe12      1.0  0.84614  0.05903  0.14925999999999995  1.0000
  Fe  Fe13      1.0  0.59614  0.69097  0.39926  1.0000
  Fe  Fe14      1.0  0.59614  0.30902999999999997  0.6007400000000002  1.0000
  Fe  Fe15      1.0  0.84614  0.94097  0.8507400000000002  1.0000
  Fe  Fe16      1.0  0.84614  0.55903  0.64926  1.0000
  Fe  Fe17      1.0  0.09614000000000011  0.19097  0.39926  1.0000
  Fe  Fe18      1.0  0.09614000000000011  0.80903  0.6007400000000002  1.0000
  Fe  Fe19      1.0  0.3461400000000001  0.44097  0.8507400000000002  1.0000
  Fe  Fe20      1.0  0.3461400000000001  0.05903  0.64926  1.0000
  Fe  Fe21      1.0  0.09614000000000011  0.69097  0.89926  1.0000
  Fe  Fe22      1.0  0.09614000000000011  0.30902999999999997  0.10074000000000005  1.0000
  Fe  Fe23      1.0  0.3461400000000001  0.94097  0.35074000000000005  1.0000
  Fe  Fe24      1.0  0.3461400000000001  0.55903  0.14925999999999995  1.0000
  Fe  Fe25      1.0  0.4001  0.0  0.0  1.0000
  Fe  Fe26      1.0  0.6501  0.25  0.25  1.0000
  Fe  Fe27      1.0  0.4001  0.5  0.5  1.0000
  Fe  Fe28      1.0  0.6501  0.75  0.7500000000000001  1.0000
  Fe  Fe29      1.0  0.9001000000000001  0.0  0.5  1.0000
  Fe  Fe30      1.0  0.15010000000000012  0.25  0.7500000000000001  1.0000
  Fe  Fe31      1.0  0.9001000000000001  0.5  0.0  1.0000
  Fe  Fe32      1.0  0.15010000000000012  0.75  0.25  1.0000
  Fe  Fe33      1.0  0.20186  0.19358  0.00545  1.0000
  Fe  Fe34      1.0  0.20186  0.80642  0.9945500000000002  1.0000
  Fe  Fe35      1.0  0.4518600000000001  0.44358  0.24455000000000002  1.0000
  Fe  Fe36      1.0  0.4518600000000001  0.05642  0.25545  1.0000
  Fe  Fe37      1.0  0.20186  0.69358  0.50545  1.0000
  Fe  Fe38      1.0  0.20186  0.30642  0.49455000000000005  1.0000
  Fe  Fe39      1.0  0.4518600000000001  0.94358  0.7445500000000002  1.0000
  Fe  Fe40      1.0  0.4518600000000001  0.55642  0.7554500000000001  1.0000
  Fe  Fe41      1.0  0.70186  0.19358  0.50545  1.0000
  Fe  Fe42      1.0  0.70186  0.80642  0.49455000000000005  1.0000
  Fe  Fe43      1.0  0.95186  0.44358  0.7445500000000002  1.0000
  Fe  Fe44      1.0  0.95186  0.05642  0.7554500000000001  1.0000
  Fe  Fe45      1.0  0.70186  0.69358  0.00545  1.0000
  Fe  Fe46      1.0  0.70186  0.30642  0.9945500000000002  1.0000
  Fe  Fe47      1.0  0.95186  0.94358  0.24455000000000002  1.0000
  Fe  Fe48      1.0  0.95186  0.55642  0.25545  1.0000
  Fe  Fe49      1.0  0.25702  0.25296999999999986  0.15148  1.0000
  Fe  Fe50      1.0  0.25702  0.7470300000000001  0.84852  1.0000
  Fe  Fe51      1.0  0.50702  0.5029699999999999  0.09852000000000001  1.0000
  Fe  Fe52      1.0  0.50702  0.9970300000000001  0.40148  1.0000
  Fe  Fe53      1.0  0.25702  0.7529699999999999  0.6514800000000001  1.0000
  Fe  Fe54      1.0  0.25702  0.24703000000000008  0.34852000000000005  1.0000
  Fe  Fe55      1.0  0.50702  0.002969999999999917  0.59852  1.0000
  Fe  Fe56      1.0  0.50702  0.4970300000000001  0.9014800000000002  1.0000
  Fe  Fe57      1.0  0.75702  0.25296999999999986  0.6514800000000001  1.0000
  Fe  Fe58      1.0  0.75702  0.7470300000000001  0.34852000000000005  1.0000
  Fe  Fe59      1.0  0.007020000000000027  0.5029699999999999  0.59852  1.0000
  Fe  Fe60      1.0  0.007020000000000027  0.9970300000000001  0.9014800000000002  1.0000
  Fe  Fe61      1.0  0.75702  0.7529699999999999  0.15148  1.0000
  Fe  Fe62      1.0  0.75702  0.24703000000000008  0.84852  1.0000
  Fe  Fe63      1.0  0.007020000000000027  0.002969999999999917  0.09852000000000001  1.0000
  Fe  Fe64      1.0  0.007020000000000027  0.4970300000000001  0.40148  1.0000
  Fe  Fe65      1.0  0.3606  0.0347  0.8470200000000002  1.0000
  Fe  Fe66      1.0  0.3606  0.9653  0.15297999999999992  1.0000
  Fe  Fe67      1.0  0.6106  0.28469999999999995  0.40297999999999995  1.0000
  Fe  Fe68      1.0  0.6106  0.2153  0.09702000000000012  1.0000
  Fe  Fe69      1.0  0.3606  0.5347  0.3470200000000001  1.0000
  Fe  Fe70      1.0  0.3606  0.4653  0.6529799999999999  1.0000
  Fe  Fe71      1.0  0.6106  0.7847  0.9029799999999999  1.0000
  Fe  Fe72      1.0  0.6106  0.7153  0.5970200000000002  1.0000
  Fe  Fe73      1.0  0.8606  0.0347  0.3470200000000001  1.0000
  Fe  Fe74      1.0  0.8606  0.9653  0.6529799999999999  1.0000
  Fe  Fe75      1.0  0.11060000000000003  0.28469999999999995  0.9029799999999999  1.0000
  Fe  Fe76      1.0  0.11060000000000003  0.2153  0.5970200000000002  1.0000
  Fe  Fe77      1.0  0.8606  0.5347  0.8470200000000002  1.0000
  Fe  Fe78      1.0  0.8606  0.4653  0.15297999999999992  1.0000
  Fe  Fe79      1.0  0.11060000000000003  0.7847  0.40297999999999995  1.0000
  Fe  Fe80      1.0  0.11060000000000003  0.7153  0.09702000000000012  1.0000
  C   C1        1.0  0.1421  0.2496  0.05300000000000001  1.0000
  C   C2        1.0  0.1421  0.7504  0.9470000000000001  1.0000
  C   C3        1.0  0.3921  0.4996  0.19700000000000004  1.0000
  C   C4        1.0  0.3921  0.00040000000000001146  0.30300000000000005  1.0000
  C   C5        1.0  0.1421  0.7495999999999999  0.5530000000000002  1.0000
  C   C6        1.0  0.1421  0.2504  0.447  1.0000
  C   C7        1.0  0.3921  0.9995999999999999  0.697  1.0000
  C   C8        1.0  0.3921  0.5004  0.8030000000000002  1.0000
  C   C9        1.0  0.6421  0.2496  0.5530000000000002  1.0000
  C   C10       1.0  0.6421  0.7504  0.447  1.0000
  C   C11       1.0  0.8921000000000001  0.4996  0.697  1.0000
  C   C12       1.0  0.8921000000000001  0.00040000000000001146  0.8030000000000002  1.0000
  C   C13       1.0  0.6421  0.7495999999999999  0.05300000000000001  1.0000
  C   C14       1.0  0.6421  0.2504  0.9470000000000001  1.0000
  C   C15       1.0  0.8921000000000001  0.9995999999999999  0.19700000000000004  1.0000
  C   C16       1.0  0.8921000000000001  0.5004  0.30300000000000005  1.0000
  C   C17       1.0  0.4067  0.9878  0.7963000000000002  1.0000
  C   C18       1.0  0.4067  0.012199999999999989  0.20369999999999988  1.0000
  C   C19       1.0  0.6567000000000001  0.2378  0.45369999999999994  1.0000
  C   C20       1.0  0.6567000000000001  0.2622  0.046300000000000015  1.0000
  C   C21       1.0  0.4067  0.4878  0.29630000000000006  1.0000
  C   C22       1.0  0.4067  0.5121999999999999  0.7037  1.0000
  C   C23       1.0  0.6567000000000001  0.7378  0.9537  1.0000
  C   C24       1.0  0.6567000000000001  0.7621999999999999  0.5463000000000001  1.0000
  C   C25       1.0  0.9067000000000001  0.9878  0.29630000000000006  1.0000
  C   C26       1.0  0.9067000000000001  0.012199999999999989  0.7037  1.0000
  C   C27       1.0  0.15670000000000006  0.2378  0.9537  1.0000
  C   C28       1.0  0.15670000000000006  0.2622  0.5463000000000001  1.0000
  C   C29       1.0  0.9067000000000001  0.4878  0.7963000000000002  1.0000
  C   C30       1.0  0.9067000000000001  0.5121999999999999  0.20369999999999988  1.0000
  C   C31       1.0  0.15670000000000006  0.7378  0.45369999999999994  1.0000
  C   C32       1.0  0.15670000000000006  0.7621999999999999  0.046300000000000015  1.0000
  C   C33       1.0  0.43550000000000005  0.2365  0.1247  1.0000
  C   C34       1.0  0.43550000000000005  0.7635000000000001  0.8753  1.0000
  C   C35       1.0  0.6855  0.48649999999999993  0.12530000000000002  1.0000
  C   C36       1.0  0.6855  0.01350000000000001  0.3747000000000001  1.0000
  C   C37       1.0  0.43550000000000005  0.7364999999999999  0.6247000000000001  1.0000
  C   C38       1.0  0.43550000000000005  0.2635  0.3753  1.0000
  C   C39       1.0  0.6855  0.9864999999999999  0.6253  1.0000
  C   C40       1.0  0.6855  0.5135000000000001  0.8747000000000001  1.0000
  C   C41       1.0  0.9355  0.2365  0.6247000000000001  1.0000
  C   C42       1.0  0.9355  0.7635000000000001  0.3753  1.0000
  C   C43       1.0  0.1855  0.48649999999999993  0.6253  1.0000
  C   C44       1.0  0.1855  0.01350000000000001  0.8747000000000001  1.0000
  C   C45       1.0  0.9355  0.7364999999999999  0.1247  1.0000
  C   C46       1.0  0.9355  0.2635  0.8753  1.0000
  C   C47       1.0  0.1855  0.9864999999999999  0.12530000000000002  1.0000
  C   C48       1.0  0.1855  0.5135000000000001  0.3747000000000001  1.0000
  C   C49       1.0  0.4844  0.11129999999999997  0.8722000000000002  1.0000
  C   C50       1.0  0.4844  0.8887  0.12779999999999994  1.0000
  C   C51       1.0  0.7343999999999999  0.36129999999999995  0.37779999999999997  1.0000
  C   C52       1.0  0.7343999999999999  0.13870000000000002  0.1222000000000001  1.0000
  C   C53       1.0  0.4844  0.6112999999999998  0.3722000000000001  1.0000
  C   C54       1.0  0.4844  0.38870000000000005  0.6278  1.0000
  C   C55       1.0  0.7343999999999999  0.8612999999999998  0.8778  1.0000
  C   C56       1.0  0.7343999999999999  0.6387  0.6222000000000001  1.0000
  C   C57       1.0  0.9843999999999999  0.11129999999999997  0.3722000000000001  1.0000
  C   C58       1.0  0.9843999999999999  0.8887  0.6278  1.0000
  C   C59       1.0  0.23439999999999997  0.36129999999999995  0.8778  1.0000
  C   C60       1.0  0.23439999999999997  0.13870000000000002  0.6222000000000001  1.0000
  C   C61       1.0  0.9843999999999999  0.6112999999999998  0.8722000000000002  1.0000
  C   C62       1.0  0.9843999999999999  0.38870000000000005  0.12779999999999994  1.0000
  C   C63       1.0  0.23439999999999997  0.8612999999999998  0.37779999999999997  1.0000
  C   C64       1.0  0.23439999999999997  0.6387  0.1222000000000001  1.0000
  C   C65       1.0  0.3032  0.09699999999999998  0.0044  0.7500
  C   C66       1.0  0.3032  0.903  0.9956000000000002  0.7500
  C   C67       1.0  0.5532  0.347  0.24560000000000004  0.7500
  C   C68       1.0  0.5532  0.15300000000000002  0.2544  0.7500
  C   C69       1.0  0.3032  0.5969999999999999  0.5044  0.7500
  C   C70       1.0  0.3032  0.403  0.49560000000000004  0.7500
  C   C71       1.0  0.5532  0.8469999999999999  0.7456000000000002  0.7500
  C   C72       1.0  0.5532  0.653  0.7544000000000001  0.7500
  C   C73       1.0  0.8032  0.09699999999999998  0.5044  0.7500
  C   C74       1.0  0.8032  0.903  0.49560000000000004  0.7500
  C   C75       1.0  0.053199999999999914  0.347  0.7456000000000002  0.7500
  C   C76       1.0  0.053199999999999914  0.15300000000000002  0.7544000000000001  0.7500
  C   C77       1.0  0.8032  0.5969999999999999  0.0044  0.7500
  C   C78       1.0  0.8032  0.403  0.9956000000000002  0.7500
  C   C79       1.0  0.053199999999999914  0.8469999999999999  0.24560000000000004  0.7500
  C   C80       1.0  0.053199999999999914  0.653  0.2544  0.7500
  C   C81       1.0  0.594  0.0  0.0  1.0000
  C   C82       1.0  0.844  0.25  0.25  1.0000
  C   C83       1.0  0.594  0.5  0.5  1.0000
  C   C84       1.0  0.844  0.75  0.7500000000000001  1.0000
  C   C85       1.0  0.09399999999999986  0.0  0.5  1.0000
  C   C86       1.0  0.34399999999999986  0.25  0.7500000000000001  1.0000
  C   C87       1.0  0.09399999999999986  0.5  0.0  1.0000
  C   C88       1.0  0.34399999999999986  0.75  0.25  1.0000
  C   C89       1.0  0.1443  0.24669999999999995  0.19940000000000005  0.7600
  C   C90       1.0  0.1443  0.7533  0.8006000000000001  0.7600
  C   C91       1.0  0.3943  0.4967  0.050599999999999985  0.7600
  C   C92       1.0  0.3943  0.003300000000000025  0.4494000000000001  0.7600
  C   C93       1.0  0.1443  0.7466999999999999  0.6994000000000001  0.7600
  C   C94       1.0  0.1443  0.2533  0.3006  0.7600
  C   C95       1.0  0.3943  0.9966999999999999  0.5506  0.7600
  C   C96       1.0  0.3943  0.5033000000000001  0.9494000000000001  0.7600
  C   C97       1.0  0.6443  0.24669999999999995  0.6994000000000001  0.7600
  C   C98       1.0  0.6443  0.7533  0.3006  0.7600
  C   C99       1.0  0.8943  0.4967  0.5506  0.7600
  C   C100      1.0  0.8943  0.003300000000000025  0.9494000000000001  0.7600
  C   C101      1.0  0.6443  0.7466999999999999  0.19940000000000005  0.7600
  C   C102      1.0  0.6443  0.2533  0.8006000000000001  0.7600
  C   C103      1.0  0.8943  0.9966999999999999  0.050599999999999985  0.7600
  C   C104      1.0  0.8943  0.5033000000000001  0.4494000000000001  0.7600
  O   O1        1.0  0.3032  0.09699999999999998  0.0044  0.2500
  O   O2        1.0  0.3032  0.903  0.9956000000000002  0.2500
  O   O3        1.0  0.5532  0.347  0.24560000000000004  0.2500
  O   O4        1.0  0.5532  0.15300000000000002  0.2544  0.2500
  O   O5        1.0  0.3032  0.5969999999999999  0.5044  0.2500
  O   O6        1.0  0.3032  0.403  0.49560000000000004  0.2500
  O   O7        1.0  0.5532  0.8469999999999999  0.7456000000000002  0.2500
  O   O8        1.0  0.5532  0.653  0.7544000000000001  0.2500
  O   O9        1.0  0.8032  0.09699999999999998  0.5044  0.2500
  O   O10       1.0  0.8032  0.903  0.49560000000000004  0.2500
  O   O11       1.0  0.053199999999999914  0.347  0.7456000000000002  0.2500
  O   O12       1.0  0.053199999999999914  0.15300000000000002  0.7544000000000001  0.2500
  O   O13       1.0  0.8032  0.5969999999999999  0.0044  0.2500
  O   O14       1.0  0.8032  0.403  0.9956000000000002  0.2500
  O   O15       1.0  0.053199999999999914  0.8469999999999999  0.24560000000000004  0.2500
  O   O16       1.0  0.053199999999999914  0.653  0.2544  0.2500
  O   O17       1.0  0.1443  0.24669999999999995  0.19940000000000005  0.2400
  O   O18       1.0  0.1443  0.7533  0.8006000000000001  0.2400
  O   O19       1.0  0.3943  0.4967  0.050599999999999985  0.2400
  O   O20       1.0  0.3943  0.003300000000000025  0.4494000000000001  0.2400
  O   O21       1.0  0.1443  0.7466999999999999  0.6994000000000001  0.2400
  O   O22       1.0  0.1443  0.2533  0.3006  0.2400
  O   O23       1.0  0.3943  0.9966999999999999  0.5506  0.2400
  O   O24       1.0  0.3943  0.5033000000000001  0.9494000000000001  0.2400
  O   O25       1.0  0.6443  0.24669999999999995  0.6994000000000001  0.2400
  O   O26       1.0  0.6443  0.7533  0.3006  0.2400
  O   O27       1.0  0.8943  0.4967  0.5506  0.2400
  O   O28       1.0  0.8943  0.003300000000000025  0.9494000000000001  0.2400
  O   O29       1.0  0.6443  0.7466999999999999  0.19940000000000005  0.2400
  O   O30       1.0  0.6443  0.2533  0.8006000000000001  0.2400
  O   O31       1.0  0.8943  0.9966999999999999  0.050599999999999985  0.2400
  O   O32       1.0  0.8943  0.5033000000000001  0.4494000000000001  0.2400
