data_image0
_chemical_formula_structural       Pb4Mn12P12O48
_chemical_formula_sum              "Pb4 Mn12 P12 O48"
_cell_length_a       10.2327
_cell_length_b       13.9389
_cell_length_c       6.6567
_cell_angle_alpha    90.0
_cell_angle_beta     90.0
_cell_angle_gamma    90.0

_space_group_name_H-M_alt    "P 1"
_space_group_IT_number       1

loop_
  _space_group_symop_operation_xyz
  'x, y, z'

loop_
  _atom_site_type_symbol
  _atom_site_label
  _atom_site_symmetry_multiplicity
  _atom_site_fract_x
  _atom_site_fract_y
  _atom_site_fract_z
  _atom_site_occupancy
  Pb  Pb1       1.0  0.0  0.25  0.88609  1.0000
  Pb  Pb2       1.0  0.0  0.75  0.11391  1.0000
  Pb  Pb3       1.0  0.5  0.75  0.38609  1.0000
  Pb  Pb4       1.0  0.5  0.25  0.61391  1.0000
  Mn  Mn1       1.0  0.0  0.0  0.4999999999999999  1.0000
  Mn  Mn2       1.0  0.0  0.5  0.4999999999999999  1.0000
  Mn  Mn3       1.0  0.5  0.5  0.0  1.0000
  Mn  Mn4       1.0  0.5  0.0  0.0  1.0000
  Mn  Mn5       1.0  0.25  0.3675400000000001  0.24999999999999994  1.0000
  Mn  Mn6       1.0  0.75  0.13245999999999997  0.24999999999999994  1.0000
  Mn  Mn7       1.0  0.25  0.6324600000000001  0.7499999999999999  1.0000
  Mn  Mn8       1.0  0.75  0.86754  0.7499999999999999  1.0000
  Mn  Mn9       1.0  0.75  0.6324600000000001  0.7499999999999999  1.0000
  Mn  Mn10      1.0  0.25  0.86754  0.7499999999999999  1.0000
  Mn  Mn11      1.0  0.75  0.3675400000000001  0.24999999999999994  1.0000
  Mn  Mn12      1.0  0.25  0.13245999999999997  0.24999999999999994  1.0000
  P   P1        1.0  0.0  0.25  0.40554  1.0000
  P   P2        1.0  0.0  0.75  0.5944599999999999  1.0000
  P   P3        1.0  0.5  0.75  0.9055399999999999  1.0000
  P   P4        1.0  0.5  0.25  0.09445999999999999  1.0000
  P   P5        1.0  0.25  0.5731600000000002  0.24999999999999994  1.0000
  P   P6        1.0  0.75  0.92684  0.24999999999999994  1.0000
  P   P7        1.0  0.25  0.4268399999999999  0.7499999999999999  1.0000
  P   P8        1.0  0.75  0.07316000000000011  0.7499999999999999  1.0000
  P   P9        1.0  0.75  0.4268399999999999  0.7499999999999999  1.0000
  P   P10       1.0  0.25  0.07316000000000011  0.7499999999999999  1.0000
  P   P11       1.0  0.75  0.5731600000000002  0.24999999999999994  1.0000
  P   P12       1.0  0.25  0.92684  0.24999999999999994  1.0000
  O   O1        1.0  0.0  0.1601  0.5362  1.0000
  O   O2        1.0  0.0  0.3399  0.5362  1.0000
  O   O3        1.0  0.0  0.8399  0.46379999999999993  1.0000
  O   O4        1.0  0.0  0.6601000000000001  0.46379999999999993  1.0000
  O   O5        1.0  0.5  0.6601000000000001  0.03620000000000001  1.0000
  O   O6        1.0  0.5  0.8399  0.03620000000000001  1.0000
  O   O7        1.0  0.5  0.3399  0.9637999999999999  1.0000
  O   O8        1.0  0.5  0.1601  0.9637999999999999  1.0000
  O   O9        1.0  0.1182  0.25  0.2619  1.0000
  O   O10       1.0  0.8818000000000001  0.25  0.2619  1.0000
  O   O11       1.0  0.1182  0.75  0.7380999999999999  1.0000
  O   O12       1.0  0.8818000000000001  0.75  0.7380999999999999  1.0000
  O   O13       1.0  0.6182000000000001  0.75  0.7618999999999999  1.0000
  O   O14       1.0  0.38180000000000003  0.75  0.7618999999999999  1.0000
  O   O15       1.0  0.6182000000000001  0.25  0.23809999999999995  1.0000
  O   O16       1.0  0.38180000000000003  0.25  0.23809999999999995  1.0000
  O   O17       1.0  0.20660000000000003  0.63321  0.0719  1.0000
  O   O18       1.0  0.7934  0.8667900000000001  0.0719  1.0000
  O   O19       1.0  0.20660000000000003  0.36679  0.9280999999999999  1.0000
  O   O20       1.0  0.7934  0.13321000000000008  0.9280999999999999  1.0000
  O   O21       1.0  0.7066000000000001  0.13321000000000008  0.5719  1.0000
  O   O22       1.0  0.2934  0.36679  0.5719  1.0000
  O   O23       1.0  0.7066000000000001  0.8667900000000001  0.4280999999999999  1.0000
  O   O24       1.0  0.2934  0.63321  0.4280999999999999  1.0000
  O   O25       1.0  0.7934  0.36679  0.9280999999999999  1.0000
  O   O26       1.0  0.20660000000000003  0.13321000000000008  0.9280999999999999  1.0000
  O   O27       1.0  0.7934  0.63321  0.0719  1.0000
  O   O28       1.0  0.20660000000000003  0.8667900000000001  0.0719  1.0000
  O   O29       1.0  0.2934  0.8667900000000001  0.4280999999999999  1.0000
  O   O30       1.0  0.7066000000000001  0.63321  0.4280999999999999  1.0000
  O   O31       1.0  0.2934  0.13321000000000008  0.5719  1.0000
  O   O32       1.0  0.7066000000000001  0.36679  0.5719  1.0000
  O   O33       1.0  0.36271  0.50018  0.19769999999999993  1.0000
  O   O34       1.0  0.63729  0.99982  0.19769999999999993  1.0000
  O   O35       1.0  0.36271  0.4998200000000001  0.8022999999999999  1.0000
  O   O36       1.0  0.63729  0.00017999999999984695  0.8022999999999999  1.0000
  O   O37       1.0  0.8627100000000001  0.00017999999999984695  0.6976999999999999  1.0000
  O   O38       1.0  0.13729000000000002  0.4998200000000001  0.6976999999999999  1.0000
  O   O39       1.0  0.8627100000000001  0.99982  0.3023  1.0000
  O   O40       1.0  0.13729000000000002  0.50018  0.3023  1.0000
  O   O41       1.0  0.63729  0.4998200000000001  0.8022999999999999  1.0000
  O   O42       1.0  0.36271  0.00017999999999984695  0.8022999999999999  1.0000
  O   O43       1.0  0.63729  0.50018  0.19769999999999993  1.0000
  O   O44       1.0  0.36271  0.99982  0.19769999999999993  1.0000
  O   O45       1.0  0.13729000000000002  0.99982  0.3023  1.0000
  O   O46       1.0  0.8627100000000001  0.50018  0.3023  1.0000
  O   O47       1.0  0.13729000000000002  0.00017999999999984695  0.6976999999999999  1.0000
  O   O48       1.0  0.8627100000000001  0.4998200000000001  0.6976999999999999  1.0000
