data_image0
_chemical_formula_structural       Eu40Sb52Mn24
_chemical_formula_sum              "Eu40 Sb52 Mn24"
_cell_length_a       15.1791
_cell_length_b       19.1919
_cell_length_c       12.267900000000001
_cell_angle_alpha    90.0
_cell_angle_beta     108.078
_cell_angle_gamma    90.0

_space_group_name_H-M_alt    "P 1"
_space_group_IT_number       1

loop_
  _space_group_symop_operation_xyz
  'x, y, z'

loop_
  _atom_site_type_symbol
  _atom_site_label
  _atom_site_symmetry_multiplicity
  _atom_site_fract_x
  _atom_site_fract_y
  _atom_site_fract_z
  _atom_site_occupancy
  Eu  Eu1       1.0  0.0  0.3812600000000001  0.5  1.0000
  Eu  Eu2       1.0  0.5  0.88126  0.5  1.0000
  Eu  Eu3       1.0  0.0  0.61874  0.5  1.0000
  Eu  Eu4       1.0  0.5  0.11873999999999997  0.5  1.0000
  Eu  Eu5       1.0  0.0  0.3884800000000001  0.0  1.0000
  Eu  Eu6       1.0  0.5  0.88848  0.0  1.0000
  Eu  Eu7       1.0  0.0  0.61152  0.0  1.0000
  Eu  Eu8       1.0  0.5  0.11151999999999995  0.0  1.0000
  Eu  Eu9       1.0  0.32031  0.38155  0.17082000000000003  1.0000
  Eu  Eu10      1.0  0.67969  0.38155  0.8291800000000001  1.0000
  Eu  Eu11      1.0  0.82031  0.8815500000000001  0.17082000000000003  1.0000
  Eu  Eu12      1.0  0.17969000000000004  0.8815500000000001  0.8291800000000001  1.0000
  Eu  Eu13      1.0  0.67969  0.61845  0.8291800000000001  1.0000
  Eu  Eu14      1.0  0.32031  0.61845  0.17082000000000003  1.0000
  Eu  Eu15      1.0  0.17969000000000004  0.11845  0.8291800000000001  1.0000
  Eu  Eu16      1.0  0.82031  0.11845  0.17082000000000003  1.0000
  Eu  Eu17      1.0  0.23655  0.3818500000000001  0.8350799999999999  1.0000
  Eu  Eu18      1.0  0.76345  0.3818500000000001  0.16492000000000004  1.0000
  Eu  Eu19      1.0  0.7365500000000001  0.8818500000000001  0.8350799999999999  1.0000
  Eu  Eu20      1.0  0.26344999999999996  0.8818500000000001  0.16492000000000004  1.0000
  Eu  Eu21      1.0  0.76345  0.61815  0.16492000000000004  1.0000
  Eu  Eu22      1.0  0.23655  0.61815  0.8350799999999999  1.0000
  Eu  Eu23      1.0  0.26344999999999996  0.11814999999999992  0.16492000000000004  1.0000
  Eu  Eu24      1.0  0.7365500000000001  0.11814999999999992  0.8350799999999999  1.0000
  Eu  Eu25      1.0  0.25214000000000003  0.37228  0.4997400000000001  1.0000
  Eu  Eu26      1.0  0.74786  0.37228  0.50026  1.0000
  Eu  Eu27      1.0  0.75214  0.8722799999999999  0.4997400000000001  1.0000
  Eu  Eu28      1.0  0.24786  0.8722799999999999  0.50026  1.0000
  Eu  Eu29      1.0  0.74786  0.6277200000000001  0.50026  1.0000
  Eu  Eu30      1.0  0.25214000000000003  0.6277200000000001  0.4997400000000001  1.0000
  Eu  Eu31      1.0  0.24786  0.12772  0.50026  1.0000
  Eu  Eu32      1.0  0.75214  0.12772  0.4997400000000001  1.0000
  Eu  Eu33      1.0  0.5  0.3498500000000001  0.0  1.0000
  Eu  Eu34      1.0  0.0  0.84985  0.0  1.0000
  Eu  Eu35      1.0  0.5  0.6501500000000001  0.0  1.0000
  Eu  Eu36      1.0  0.0  0.15014999999999998  0.0  1.0000
  Eu  Eu37      1.0  0.5  0.3642500000000001  0.5  1.0000
  Eu  Eu38      1.0  0.0  0.8642500000000001  0.5  1.0000
  Eu  Eu39      1.0  0.5  0.63575  0.5  1.0000
  Eu  Eu40      1.0  0.0  0.13574999999999993  0.5  1.0000
  Sb  Sb1       1.0  0.16615000000000002  0.5  0.6309200000000001  1.0000
  Sb  Sb2       1.0  0.8338500000000001  0.5  0.3690799999999999  1.0000
  Sb  Sb3       1.0  0.66615  0.0  0.6309200000000001  1.0000
  Sb  Sb4       1.0  0.33385  0.0  0.3690799999999999  1.0000
  Sb  Sb5       1.0  0.06971  0.38576  0.2761  1.0000
  Sb  Sb6       1.0  0.9302900000000001  0.38576  0.7239  1.0000
  Sb  Sb7       1.0  0.5697099999999999  0.8857600000000001  0.2761  1.0000
  Sb  Sb8       1.0  0.43029  0.8857600000000001  0.7239  1.0000
  Sb  Sb9       1.0  0.9302900000000001  0.6142400000000001  0.7239  1.0000
  Sb  Sb10      1.0  0.06971  0.6142400000000001  0.2761  1.0000
  Sb  Sb11      1.0  0.43029  0.11424000000000001  0.7239  1.0000
  Sb  Sb12      1.0  0.5697099999999999  0.11424000000000001  0.2761  1.0000
  Sb  Sb13      1.0  0.16654  0.5  0.0038800000000000006  1.0000
  Sb  Sb14      1.0  0.83346  0.5  0.99612  1.0000
  Sb  Sb15      1.0  0.66654  0.0  0.0038800000000000006  1.0000
  Sb  Sb16      1.0  0.33346  0.0  0.99612  1.0000
  Sb  Sb17      1.0  0.15425000000000005  0.2629000000000001  2.0000000000000005e-05  1.0000
  Sb  Sb18      1.0  0.84575  0.2629000000000001  0.99998  1.0000
  Sb  Sb19      1.0  0.65425  0.7629000000000002  2.0000000000000005e-05  1.0000
  Sb  Sb20      1.0  0.34575  0.7629000000000002  0.99998  1.0000
  Sb  Sb21      1.0  0.84575  0.7370999999999999  0.99998  1.0000
  Sb  Sb22      1.0  0.15425000000000005  0.7370999999999999  2.0000000000000005e-05  1.0000
  Sb  Sb23      1.0  0.34575  0.23709999999999992  0.99998  1.0000
  Sb  Sb24      1.0  0.65425  0.23709999999999992  2.0000000000000005e-05  1.0000
  Sb  Sb25      1.0  0.43237  0.343  0.7256900000000002  1.0000
  Sb  Sb26      1.0  0.5676300000000001  0.343  0.27430999999999994  1.0000
  Sb  Sb27      1.0  0.9323699999999999  0.843  0.7256900000000002  1.0000
  Sb  Sb28      1.0  0.06763000000000002  0.843  0.27430999999999994  1.0000
  Sb  Sb29      1.0  0.5676300000000001  0.657  0.27430999999999994  1.0000
  Sb  Sb30      1.0  0.43237  0.657  0.7256900000000002  1.0000
  Sb  Sb31      1.0  0.06763000000000002  0.15699999999999997  0.27430999999999994  1.0000
  Sb  Sb32      1.0  0.9323699999999999  0.15699999999999997  0.7256900000000002  1.0000
  Sb  Sb33      1.0  0.35384  0.5  0.38395  1.0000
  Sb  Sb34      1.0  0.6461600000000001  0.5  0.61605  1.0000
  Sb  Sb35      1.0  0.8538399999999999  0.0  0.38395  1.0000
  Sb  Sb36      1.0  0.14616  0.0  0.61605  1.0000
  Sb  Sb37      1.0  0.43265  0.5  0.7345600000000001  1.0000
  Sb  Sb38      1.0  0.56735  0.5  0.2654399999999999  1.0000
  Sb  Sb39      1.0  0.93265  0.0  0.7345600000000001  1.0000
  Sb  Sb40      1.0  0.06735000000000002  0.0  0.2654399999999999  1.0000
  Sb  Sb41      1.0  0.39915  0.5  0.00166  1.0000
  Sb  Sb42      1.0  0.6008500000000001  0.5  0.9983400000000001  1.0000
  Sb  Sb43      1.0  0.8991500000000001  0.0  0.00166  1.0000
  Sb  Sb44      1.0  0.10085000000000002  0.0  0.9983400000000001  1.0000
  Sb  Sb45      1.0  0.15977  0.25271  0.63756  1.0000
  Sb  Sb46      1.0  0.84023  0.25271  0.36244000000000004  1.0000
  Sb  Sb47      1.0  0.65977  0.7527100000000001  0.63756  1.0000
  Sb  Sb48      1.0  0.3402300000000001  0.7527100000000001  0.36244000000000004  1.0000
  Sb  Sb49      1.0  0.84023  0.74729  0.36244000000000004  1.0000
  Sb  Sb50      1.0  0.15977  0.74729  0.63756  1.0000
  Sb  Sb51      1.0  0.3402300000000001  0.24729000000000004  0.36244000000000004  1.0000
  Sb  Sb52      1.0  0.65977  0.24729000000000004  0.63756  1.0000
  Mn  Mn1       1.0  0.1671  0.5  0.23500000000000004  1.0000
  Mn  Mn2       1.0  0.8329000000000001  0.5  0.765  1.0000
  Mn  Mn3       1.0  0.6671  0.0  0.23500000000000004  1.0000
  Mn  Mn4       1.0  0.3329  0.0  0.765  1.0000
  Mn  Mn5       1.0  0.05030000000000002  0.5  0.7728  1.0000
  Mn  Mn6       1.0  0.9497  0.5  0.2272  1.0000
  Mn  Mn7       1.0  0.5503  0.0  0.7728  1.0000
  Mn  Mn8       1.0  0.44970000000000004  0.0  0.2272  1.0000
  Mn  Mn9       1.0  0.04289000000000006  0.26921  0.7706300000000003  1.0000
  Mn  Mn10      1.0  0.9571100000000001  0.26921  0.22936999999999988  1.0000
  Mn  Mn11      1.0  0.54289  0.76921  0.7706300000000003  1.0000
  Mn  Mn12      1.0  0.45710999999999996  0.76921  0.22936999999999988  1.0000
  Mn  Mn13      1.0  0.9571100000000001  0.73079  0.22936999999999988  1.0000
  Mn  Mn14      1.0  0.04289000000000006  0.73079  0.7706300000000003  1.0000
  Mn  Mn15      1.0  0.45710999999999996  0.23079000000000002  0.22936999999999988  1.0000
  Mn  Mn16      1.0  0.54289  0.23079000000000002  0.7706300000000003  1.0000
  Mn  Mn17      1.0  0.15724  0.26797  0.22855  1.0000
  Mn  Mn18      1.0  0.84276  0.26797  0.7714500000000001  1.0000
  Mn  Mn19      1.0  0.65724  0.7679700000000002  0.22855  1.0000
  Mn  Mn20      1.0  0.34276000000000006  0.7679700000000002  0.7714500000000001  1.0000
  Mn  Mn21      1.0  0.84276  0.73203  0.7714500000000001  1.0000
  Mn  Mn22      1.0  0.15724  0.73203  0.22855  1.0000
  Mn  Mn23      1.0  0.34276000000000006  0.23203000000000001  0.7714500000000001  1.0000
  Mn  Mn24      1.0  0.65724  0.23203000000000001  0.22855  1.0000
