data_image0
_chemical_formula_structural       Sr8V16Ni16O64
_chemical_formula_sum              "Sr8 V16 Ni16 O64"
_cell_length_a       12.1617
_cell_length_b       12.1617
_cell_length_c       8.3247
_cell_angle_alpha    90.0
_cell_angle_beta     90.0
_cell_angle_gamma    90.0

_space_group_name_H-M_alt    "P 1"
_space_group_IT_number       1

loop_
  _space_group_symop_operation_xyz
  'x, y, z'

loop_
  _atom_site_type_symbol
  _atom_site_label
  _atom_site_symmetry_multiplicity
  _atom_site_fract_x
  _atom_site_fract_y
  _atom_site_fract_z
  _atom_site_occupancy
  Sr  Sr1       1.0  0.0  0.0  0.7706  1.0000
  Sr  Sr2       1.0  0.0  0.5  0.020600000000000007  1.0000
  Sr  Sr3       1.0  0.5  0.5  0.2706  1.0000
  Sr  Sr4       1.0  0.5  0.0  0.5206  1.0000
  Sr  Sr5       1.0  0.0  0.0  0.2706  1.0000
  Sr  Sr6       1.0  0.0  0.5  0.5206  1.0000
  Sr  Sr7       1.0  0.5  0.5  0.7706  1.0000
  Sr  Sr8       1.0  0.5  0.0  0.020600000000000007  1.0000
  V   V1        1.0  0.2596  0.0802  0.8721  1.0000
  V   V2        1.0  0.9198  0.7596  0.12209999999999999  1.0000
  V   V3        1.0  0.2404  0.4198  0.3721  1.0000
  V   V4        1.0  0.5802  0.7404  0.6221  1.0000
  V   V5        1.0  0.7404  0.0802  0.3721  1.0000
  V   V6        1.0  0.9198  0.2404  0.6221  1.0000
  V   V7        1.0  0.7596  0.4198  0.8721  1.0000
  V   V8        1.0  0.5802  0.2596  0.12209999999999999  1.0000
  V   V9        1.0  0.7596  0.5802  0.3721  1.0000
  V   V10       1.0  0.4198  0.2596  0.6221  1.0000
  V   V11       1.0  0.7404  0.9198  0.8721  1.0000
  V   V12       1.0  0.0802  0.2404  0.12209999999999999  1.0000
  V   V13       1.0  0.2404  0.5802  0.8721  1.0000
  V   V14       1.0  0.4198  0.7404  0.12209999999999999  1.0000
  V   V15       1.0  0.2596  0.9198  0.3721  1.0000
  V   V16       1.0  0.0802  0.7596  0.6221  1.0000
  Ni  Ni1       1.0  0.3283  0.3345  0.0  1.0000
  Ni  Ni2       1.0  0.6655  0.8283000000000001  0.25  1.0000
  Ni  Ni3       1.0  0.17170000000000002  0.1655  0.5  1.0000
  Ni  Ni4       1.0  0.8345  0.6716999999999999  0.75  1.0000
  Ni  Ni5       1.0  0.6716999999999999  0.3345  0.5  1.0000
  Ni  Ni6       1.0  0.6655  0.17170000000000002  0.75  1.0000
  Ni  Ni7       1.0  0.8283000000000001  0.1655  0.0  1.0000
  Ni  Ni8       1.0  0.8345  0.3283  0.25  1.0000
  Ni  Ni9       1.0  0.8283000000000001  0.8345  0.5  1.0000
  Ni  Ni10      1.0  0.1655  0.3283  0.75  1.0000
  Ni  Ni11      1.0  0.6716999999999999  0.6655  0.0  1.0000
  Ni  Ni12      1.0  0.3345  0.17170000000000002  0.25  1.0000
  Ni  Ni13      1.0  0.17170000000000002  0.8345  0.0  1.0000
  Ni  Ni14      1.0  0.1655  0.6716999999999999  0.25  1.0000
  Ni  Ni15      1.0  0.3283  0.6655  0.5  1.0000
  Ni  Ni16      1.0  0.3345  0.8283000000000001  0.75  1.0000
  O   O1        1.0  0.153  0.499  0.784  1.0000
  O   O2        1.0  0.501  0.653  0.034  1.0000
  O   O3        1.0  0.347  0.0010000000000000009  0.284  1.0000
  O   O4        1.0  0.999  0.8469999999999999  0.534  1.0000
  O   O5        1.0  0.8469999999999999  0.499  0.284  1.0000
  O   O6        1.0  0.501  0.347  0.534  1.0000
  O   O7        1.0  0.653  0.0010000000000000009  0.784  1.0000
  O   O8        1.0  0.999  0.153  0.034  1.0000
  O   O9        1.0  0.653  0.999  0.284  1.0000
  O   O10       1.0  0.0010000000000000009  0.153  0.534  1.0000
  O   O11       1.0  0.8469999999999999  0.501  0.784  1.0000
  O   O12       1.0  0.499  0.347  0.034  1.0000
  O   O13       1.0  0.347  0.999  0.784  1.0000
  O   O14       1.0  0.0010000000000000009  0.8469999999999999  0.034  1.0000
  O   O15       1.0  0.153  0.501  0.284  1.0000
  O   O16       1.0  0.499  0.653  0.534  1.0000
  O   O17       1.0  0.35  0.672  0.259  1.0000
  O   O18       1.0  0.32799999999999996  0.85  0.509  1.0000
  O   O19       1.0  0.15000000000000002  0.828  0.759  1.0000
  O   O20       1.0  0.17200000000000018  0.65  0.008999999999999897  1.0000
  O   O21       1.0  0.65  0.672  0.759  1.0000
  O   O22       1.0  0.32799999999999996  0.15000000000000002  0.008999999999999897  1.0000
  O   O23       1.0  0.85  0.828  0.259  1.0000
  O   O24       1.0  0.17200000000000018  0.35  0.509  1.0000
  O   O25       1.0  0.85  0.17200000000000018  0.759  1.0000
  O   O26       1.0  0.828  0.35  0.008999999999999897  1.0000
  O   O27       1.0  0.65  0.32799999999999996  0.259  1.0000
  O   O28       1.0  0.672  0.15000000000000002  0.509  1.0000
  O   O29       1.0  0.15000000000000002  0.17200000000000018  0.259  1.0000
  O   O30       1.0  0.828  0.65  0.509  1.0000
  O   O31       1.0  0.35  0.32799999999999996  0.759  1.0000
  O   O32       1.0  0.672  0.85  0.008999999999999897  1.0000
  O   O33       1.0  0.164  0.678  0.496  1.0000
  O   O34       1.0  0.32199999999999995  0.664  0.746  1.0000
  O   O35       1.0  0.33599999999999997  0.822  0.9959999999999999  1.0000
  O   O36       1.0  0.17799999999999994  0.836  0.24600000000000002  1.0000
  O   O37       1.0  0.836  0.678  0.9959999999999999  1.0000
  O   O38       1.0  0.32199999999999995  0.33599999999999997  0.24600000000000002  1.0000
  O   O39       1.0  0.664  0.822  0.496  1.0000
  O   O40       1.0  0.17799999999999994  0.164  0.746  1.0000
  O   O41       1.0  0.664  0.17799999999999994  0.9959999999999999  1.0000
  O   O42       1.0  0.822  0.164  0.24600000000000002  1.0000
  O   O43       1.0  0.836  0.32199999999999995  0.496  1.0000
  O   O44       1.0  0.678  0.33599999999999997  0.746  1.0000
  O   O45       1.0  0.33599999999999997  0.17799999999999994  0.496  1.0000
  O   O46       1.0  0.822  0.836  0.746  1.0000
  O   O47       1.0  0.164  0.32199999999999995  0.9959999999999999  1.0000
  O   O48       1.0  0.678  0.664  0.24600000000000002  1.0000
  O   O49       1.0  0.332  0.497  0.975  1.0000
  O   O50       1.0  0.503  0.8320000000000002  0.225  1.0000
  O   O51       1.0  0.16799999999999998  0.0030000000000000027  0.475  1.0000
  O   O52       1.0  0.997  0.6679999999999998  0.725  1.0000
  O   O53       1.0  0.6679999999999998  0.497  0.475  1.0000
  O   O54       1.0  0.503  0.16799999999999998  0.725  1.0000
  O   O55       1.0  0.8320000000000002  0.0030000000000000027  0.975  1.0000
  O   O56       1.0  0.997  0.332  0.225  1.0000
  O   O57       1.0  0.8320000000000002  0.997  0.475  1.0000
  O   O58       1.0  0.0030000000000000027  0.332  0.725  1.0000
  O   O59       1.0  0.6679999999999998  0.503  0.975  1.0000
  O   O60       1.0  0.497  0.16799999999999998  0.225  1.0000
  O   O61       1.0  0.16799999999999998  0.997  0.975  1.0000
  O   O62       1.0  0.0030000000000000027  0.6679999999999998  0.225  1.0000
  O   O63       1.0  0.332  0.503  0.475  1.0000
  O   O64       1.0  0.497  0.8320000000000002  0.725  1.0000
