data_image0
_chemical_formula_structural       Er32O48
_chemical_formula_sum              "Er32 O48"
_cell_length_a       10.54
_cell_length_b       10.54
_cell_length_c       10.54
_cell_angle_alpha    90.0
_cell_angle_beta     90.0
_cell_angle_gamma    90.0

_space_group_name_H-M_alt    "P 1"
_space_group_IT_number       1

loop_
  _space_group_symop_operation_xyz
  'x, y, z'

loop_
  _atom_site_type_symbol
  _atom_site_label
  _atom_site_symmetry_multiplicity
  _atom_site_fract_x
  _atom_site_fract_y
  _atom_site_fract_z
  _atom_site_occupancy
  Er  Er1       1.0  0.24999999999999994  0.24999999999999994  0.24999999999999994  1.0000
  Er  Er2       1.0  0.75  0.24999999999999997  0.75  1.0000
  Er  Er3       1.0  0.75  0.75  0.24999999999999997  1.0000
  Er  Er4       1.0  0.24999999999999997  0.75  0.75  1.0000
  Er  Er5       1.0  0.75  0.75  0.75  1.0000
  Er  Er6       1.0  0.24999999999999994  0.75  0.24999999999999997  1.0000
  Er  Er7       1.0  0.24999999999999997  0.24999999999999994  0.75  1.0000
  Er  Er8       1.0  0.75  0.24999999999999997  0.24999999999999994  1.0000
  Er  Er9       1.0  0.021  0.0  0.24999999999999994  1.0000
  Er  Er10      1.0  0.0  0.24999999999999994  0.021  1.0000
  Er  Er11      1.0  0.24999999999999994  0.021  0.0  1.0000
  Er  Er12      1.0  0.521  0.49999999999999994  0.75  1.0000
  Er  Er13      1.0  0.49999999999999994  0.24999999999999997  0.979  1.0000
  Er  Er14      1.0  0.75  0.4789999999999999  0.0  1.0000
  Er  Er15      1.0  0.979  0.49999999999999994  0.24999999999999997  1.0000
  Er  Er16      1.0  0.0  0.75  0.4789999999999999  1.0000
  Er  Er17      1.0  0.75  0.521  0.49999999999999994  1.0000
  Er  Er18      1.0  0.4789999999999999  0.0  0.75  1.0000
  Er  Er19      1.0  0.49999999999999994  0.75  0.521  1.0000
  Er  Er20      1.0  0.24999999999999997  0.979  0.49999999999999994  1.0000
  Er  Er21      1.0  0.542  0.0  0.24999999999999994  1.0000
  Er  Er22      1.0  0.0  0.24999999999999994  0.542  1.0000
  Er  Er23      1.0  0.24999999999999994  0.542  0.0  1.0000
  Er  Er24      1.0  0.04200000000000004  0.49999999999999994  0.75  1.0000
  Er  Er25      1.0  0.49999999999999994  0.24999999999999997  0.45799999999999996  1.0000
  Er  Er26      1.0  0.75  0.9579999999999999  0.0  1.0000
  Er  Er27      1.0  0.45799999999999996  0.49999999999999994  0.24999999999999997  1.0000
  Er  Er28      1.0  0.0  0.75  0.9579999999999999  1.0000
  Er  Er29      1.0  0.75  0.04200000000000004  0.49999999999999994  1.0000
  Er  Er30      1.0  0.9579999999999999  0.0  0.75  1.0000
  Er  Er31      1.0  0.49999999999999994  0.75  0.04200000000000004  1.0000
  Er  Er32      1.0  0.24999999999999997  0.45799999999999996  0.49999999999999994  1.0000
  O   O1        1.0  0.12499999999999997  0.135  0.39499999999999996  1.0000
  O   O2        1.0  0.135  0.39499999999999996  0.12499999999999997  1.0000
  O   O3        1.0  0.39499999999999996  0.12499999999999997  0.135  1.0000
  O   O4        1.0  0.625  0.365  0.605  1.0000
  O   O5        1.0  0.635  0.10500000000000002  0.875  1.0000
  O   O6        1.0  0.8949999999999999  0.375  0.8649999999999999  1.0000
  O   O7        1.0  0.875  0.635  0.10500000000000002  1.0000
  O   O8        1.0  0.8649999999999999  0.8949999999999999  0.375  1.0000
  O   O9        1.0  0.605  0.625  0.365  1.0000
  O   O10       1.0  0.375  0.8649999999999999  0.8949999999999999  1.0000
  O   O11       1.0  0.365  0.605  0.625  1.0000
  O   O12       1.0  0.10500000000000002  0.875  0.635  1.0000
  O   O13       1.0  0.625  0.635  0.8949999999999999  1.0000
  O   O14       1.0  0.635  0.8949999999999999  0.625  1.0000
  O   O15       1.0  0.8949999999999999  0.625  0.635  1.0000
  O   O16       1.0  0.12499999999999997  0.8649999999999999  0.10500000000000002  1.0000
  O   O17       1.0  0.135  0.605  0.375  1.0000
  O   O18       1.0  0.39499999999999996  0.875  0.365  1.0000
  O   O19       1.0  0.375  0.135  0.605  1.0000
  O   O20       1.0  0.365  0.39499999999999996  0.875  1.0000
  O   O21       1.0  0.10500000000000002  0.12499999999999997  0.8649999999999999  1.0000
  O   O22       1.0  0.875  0.365  0.39499999999999996  1.0000
  O   O23       1.0  0.8649999999999999  0.10500000000000002  0.12499999999999997  1.0000
  O   O24       1.0  0.605  0.375  0.135  1.0000
  O   O25       1.0  0.1  0.358  0.373  1.0000
  O   O26       1.0  0.358  0.373  0.1  1.0000
  O   O27       1.0  0.373  0.1  0.358  1.0000
  O   O28       1.0  0.5999999999999999  0.14200000000000002  0.627  1.0000
  O   O29       1.0  0.858  0.127  0.8999999999999999  1.0000
  O   O30       1.0  0.8729999999999999  0.4  0.642  1.0000
  O   O31       1.0  0.8999999999999999  0.858  0.127  1.0000
  O   O32       1.0  0.642  0.8729999999999999  0.4  1.0000
  O   O33       1.0  0.627  0.5999999999999999  0.14200000000000002  1.0000
  O   O34       1.0  0.4  0.642  0.8729999999999999  1.0000
  O   O35       1.0  0.14200000000000002  0.627  0.5999999999999999  1.0000
  O   O36       1.0  0.127  0.8999999999999999  0.858  1.0000
  O   O37       1.0  0.5999999999999999  0.858  0.8729999999999999  1.0000
  O   O38       1.0  0.858  0.8729999999999999  0.5999999999999999  1.0000
  O   O39       1.0  0.8729999999999999  0.5999999999999999  0.858  1.0000
  O   O40       1.0  0.1  0.642  0.127  1.0000
  O   O41       1.0  0.358  0.627  0.4  1.0000
  O   O42       1.0  0.373  0.8999999999999999  0.14200000000000002  1.0000
  O   O43       1.0  0.4  0.358  0.627  1.0000
  O   O44       1.0  0.14200000000000002  0.373  0.8999999999999999  1.0000
  O   O45       1.0  0.127  0.1  0.642  1.0000
  O   O46       1.0  0.8999999999999999  0.14200000000000002  0.373  1.0000
  O   O47       1.0  0.642  0.127  0.1  1.0000
  O   O48       1.0  0.627  0.4  0.358  1.0000
