data_image0
_chemical_formula_structural       Ge8Cu24S32
_chemical_formula_sum              "Ge8 Cu24 S32"
_cell_length_a       20.7857
_cell_length_b       7.4656
_cell_length_c       13.1562
_cell_angle_alpha    90.0
_cell_angle_beta     116.42800000000001
_cell_angle_gamma    90.0

_space_group_name_H-M_alt    "P 1"
_space_group_IT_number       1

loop_
  _space_group_symop_operation_xyz
  'x, y, z'

loop_
  _atom_site_type_symbol
  _atom_site_label
  _atom_site_symmetry_multiplicity
  _atom_site_fract_x
  _atom_site_fract_y
  _atom_site_fract_z
  _atom_site_occupancy
  Ge  Ge1       1.0  0.311  0.9971  0.20631000000000005  1.0000
  Ge  Ge2       1.0  0.6890000000000001  0.9971  0.29369  1.0000
  Ge  Ge3       1.0  0.811  0.49710000000000004  0.20631000000000005  1.0000
  Ge  Ge4       1.0  0.18899999999999997  0.49710000000000004  0.29369  1.0000
  Ge  Ge5       1.0  0.6890000000000001  0.0029  0.7936900000000001  1.0000
  Ge  Ge6       1.0  0.31100000000000005  0.0029  0.7063100000000001  1.0000
  Ge  Ge7       1.0  0.18900000000000003  0.5029  0.7936900000000001  1.0000
  Ge  Ge8       1.0  0.811  0.5029  0.7063100000000001  1.0000
  Cu  Cu1       1.0  0.29949  0.21663000000000004  0.95072  1.0000
  Cu  Cu2       1.0  0.70051  0.21663000000000004  0.54928  1.0000
  Cu  Cu3       1.0  0.79949  0.7166300000000001  0.95072  1.0000
  Cu  Cu4       1.0  0.20051000000000002  0.7166300000000001  0.54928  1.0000
  Cu  Cu5       1.0  0.70051  0.78337  0.04928  1.0000
  Cu  Cu6       1.0  0.29949  0.78337  0.45072000000000007  1.0000
  Cu  Cu7       1.0  0.20051000000000002  0.28337000000000007  0.04928  1.0000
  Cu  Cu8       1.0  0.79949  0.28337000000000007  0.45072000000000007  1.0000
  Cu  Cu9       1.0  0.30454  0.21798000000000006  0.45402  1.0000
  Cu  Cu10      1.0  0.69546  0.21798000000000006  0.04598000000000002  1.0000
  Cu  Cu11      1.0  0.80454  0.7179800000000002  0.45402  1.0000
  Cu  Cu12      1.0  0.19546000000000005  0.7179800000000002  0.04598000000000002  1.0000
  Cu  Cu13      1.0  0.6954599999999999  0.78202  0.54598  1.0000
  Cu  Cu14      1.0  0.30454  0.78202  0.95402  1.0000
  Cu  Cu15      1.0  0.19546000000000005  0.28202  0.54598  1.0000
  Cu  Cu16      1.0  0.80454  0.28202  0.95402  1.0000
  Cu  Cu17      1.0  0.18672000000000005  0.0005300000000000002  0.79601  1.0000
  Cu  Cu18      1.0  0.8132800000000001  0.0005300000000000002  0.70399  1.0000
  Cu  Cu19      1.0  0.68672  0.50053  0.79601  1.0000
  Cu  Cu20      1.0  0.31328  0.50053  0.70399  1.0000
  Cu  Cu21      1.0  0.8132800000000001  0.9994700000000001  0.20399  1.0000
  Cu  Cu22      1.0  0.18672000000000002  0.9994700000000001  0.29601  1.0000
  Cu  Cu23      1.0  0.31328  0.4994700000000001  0.20399  1.0000
  Cu  Cu24      1.0  0.68672  0.4994700000000001  0.29601  1.0000
  S   S1        1.0  0.34516  0.24268000000000006  0.14473  1.0000
  S   S2        1.0  0.65484  0.24268000000000006  0.35527  1.0000
  S   S3        1.0  0.8451600000000001  0.7426800000000001  0.14473  1.0000
  S   S4        1.0  0.15483999999999998  0.7426800000000001  0.35527  1.0000
  S   S5        1.0  0.65484  0.75732  0.85527  1.0000
  S   S6        1.0  0.34516  0.75732  0.64473  1.0000
  S   S7        1.0  0.15484  0.25732  0.85527  1.0000
  S   S8        1.0  0.8451600000000001  0.25732  0.64473  1.0000
  S   S9        1.0  0.35487000000000013  0.9983600000000001  0.39395000000000013  1.0000
  S   S10       1.0  0.64513  0.9983600000000001  0.10604999999999992  1.0000
  S   S11       1.0  0.85487  0.4983600000000001  0.39395000000000013  1.0000
  S   S12       1.0  0.14512999999999993  0.4983600000000001  0.10604999999999992  1.0000
  S   S13       1.0  0.64513  0.0016400000000000004  0.60605  1.0000
  S   S14       1.0  0.35487000000000013  0.0016400000000000004  0.89395  1.0000
  S   S15       1.0  0.14512999999999993  0.50164  0.60605  1.0000
  S   S16       1.0  0.85487  0.50164  0.89395  1.0000
  S   S17       1.0  0.19262000000000004  0.9993400000000001  0.12609  1.0000
  S   S18       1.0  0.8073800000000001  0.9993400000000001  0.37390999999999996  1.0000
  S   S19       1.0  0.69262  0.49934000000000006  0.12609  1.0000
  S   S20       1.0  0.30737999999999993  0.49934000000000006  0.37390999999999996  1.0000
  S   S21       1.0  0.8073800000000001  0.0006600000000000002  0.87391  1.0000
  S   S22       1.0  0.19262000000000004  0.0006600000000000002  0.62609  1.0000
  S   S23       1.0  0.30738  0.50066  0.87391  1.0000
  S   S24       1.0  0.69262  0.50066  0.62609  1.0000
  S   S25       1.0  0.34666000000000013  0.7539500000000001  0.14555  1.0000
  S   S26       1.0  0.6533399999999999  0.7539500000000001  0.35445  1.0000
  S   S27       1.0  0.8466600000000001  0.25395  0.14555  1.0000
  S   S28       1.0  0.15333999999999992  0.25395  0.35445  1.0000
  S   S29       1.0  0.6533399999999999  0.24605000000000005  0.8544499999999999  1.0000
  S   S30       1.0  0.34666000000000013  0.24605000000000005  0.6455500000000001  1.0000
  S   S31       1.0  0.1533399999999999  0.74605  0.8544499999999999  1.0000
  S   S32       1.0  0.8466600000000001  0.74605  0.6455500000000001  1.0000
