data_image0
_chemical_formula_structural       Sm4Co36Si8C8
_chemical_formula_sum              "Sm4 Co36 Si8 C8"
_cell_length_a       9.954
_cell_length_b       9.954
_cell_length_c       6.48
_cell_angle_alpha    90.0
_cell_angle_beta     90.0
_cell_angle_gamma    90.0

_space_group_name_H-M_alt    "P 1"
_space_group_IT_number       1

loop_
  _space_group_symop_operation_xyz
  'x, y, z'

loop_
  _atom_site_type_symbol
  _atom_site_label
  _atom_site_symmetry_multiplicity
  _atom_site_fract_x
  _atom_site_fract_y
  _atom_site_fract_z
  _atom_site_occupancy
  Sm  Sm1       1.0  0.0  0.24999999999999994  0.8749999999999999  1.0000
  Sm  Sm2       1.0  0.49999999999999994  0.24999999999999997  0.6250000000000001  1.0000
  Sm  Sm3       1.0  0.0  0.75  0.1250000000000001  1.0000
  Sm  Sm4       1.0  0.49999999999999994  0.75  0.37500000000000017  1.0000
  Co  Co1       1.0  0.0  0.24999999999999994  0.375  1.0000
  Co  Co2       1.0  0.49999999999999994  0.24999999999999997  0.125  1.0000
  Co  Co3       1.0  0.0  0.75  0.6250000000000001  1.0000
  Co  Co4       1.0  0.49999999999999994  0.75  0.8749999999999999  1.0000
  Co  Co5       1.0  0.1258  0.45339999999999997  0.19430000000000003  1.0000
  Co  Co6       1.0  0.1258  0.04660000000000003  0.19430000000000003  1.0000
  Co  Co7       1.0  0.7033999999999999  0.3758  0.9443  1.0000
  Co  Co8       1.0  0.7033999999999999  0.12419999999999999  0.9443  1.0000
  Co  Co9       1.0  0.8742  0.45339999999999997  0.19430000000000003  1.0000
  Co  Co10      1.0  0.8742  0.04660000000000003  0.19430000000000003  1.0000
  Co  Co11      1.0  0.29660000000000003  0.3758  0.9443  1.0000
  Co  Co12      1.0  0.29660000000000003  0.12419999999999999  0.9443  1.0000
  Co  Co13      1.0  0.8742  0.5466  0.8057  1.0000
  Co  Co14      1.0  0.8742  0.9534  0.8057  1.0000
  Co  Co15      1.0  0.29660000000000003  0.6242  0.05569999999999998  1.0000
  Co  Co16      1.0  0.29660000000000003  0.8757999999999999  0.05569999999999998  1.0000
  Co  Co17      1.0  0.1258  0.5466  0.8057  1.0000
  Co  Co18      1.0  0.1258  0.9534  0.8057  1.0000
  Co  Co19      1.0  0.7033999999999999  0.6242  0.05569999999999998  1.0000
  Co  Co20      1.0  0.7033999999999999  0.8757999999999999  0.05569999999999998  1.0000
  Co  Co21      1.0  0.6257999999999999  0.9534  0.6943  1.0000
  Co  Co22      1.0  0.6257999999999999  0.5466  0.6943  1.0000
  Co  Co23      1.0  0.20340000000000003  0.8757999999999999  0.44430000000000003  1.0000
  Co  Co24      1.0  0.20340000000000003  0.6242  0.44430000000000003  1.0000
  Co  Co25      1.0  0.3742  0.9534  0.6943  1.0000
  Co  Co26      1.0  0.3742  0.5466  0.6943  1.0000
  Co  Co27      1.0  0.7966  0.8757999999999999  0.44430000000000003  1.0000
  Co  Co28      1.0  0.7966  0.6242  0.44430000000000003  1.0000
  Co  Co29      1.0  0.3742  0.04660000000000003  0.30569999999999997  1.0000
  Co  Co30      1.0  0.3742  0.45339999999999997  0.30569999999999997  1.0000
  Co  Co31      1.0  0.7966  0.12419999999999999  0.5557  1.0000
  Co  Co32      1.0  0.7966  0.3758  0.5557  1.0000
  Co  Co33      1.0  0.6257999999999999  0.04660000000000003  0.30569999999999997  1.0000
  Co  Co34      1.0  0.6257999999999999  0.45339999999999997  0.30569999999999997  1.0000
  Co  Co35      1.0  0.20340000000000003  0.12419999999999999  0.5557  1.0000
  Co  Co36      1.0  0.20340000000000003  0.3758  0.5557  1.0000
  Si  Si1       1.0  0.0  0.0  0.5  1.0000
  Si  Si2       1.0  0.0  0.49999999999999994  0.5  1.0000
  Si  Si3       1.0  0.24999999999999997  0.24999999999999997  0.25  1.0000
  Si  Si4       1.0  0.75  0.24999999999999997  0.25  1.0000
  Si  Si5       1.0  0.75  0.75  0.75  1.0000
  Si  Si6       1.0  0.24999999999999997  0.75  0.75  1.0000
  Si  Si7       1.0  0.49999999999999994  0.49999999999999994  0.0  1.0000
  Si  Si8       1.0  0.49999999999999994  0.0  0.0  1.0000
  C   C1        1.0  0.0  0.0  0.0  0.7875
  C   C2        1.0  0.0  0.49999999999999994  0.0  0.7875
  C   C3        1.0  0.24999999999999997  0.24999999999999997  0.75  0.7875
  C   C4        1.0  0.75  0.24999999999999997  0.75  0.7875
  C   C5        1.0  0.75  0.75  0.25  0.7875
  C   C6        1.0  0.24999999999999997  0.75  0.25  0.7875
  C   C7        1.0  0.49999999999999994  0.49999999999999994  0.5  0.7875
  C   C8        1.0  0.49999999999999994  0.0  0.5  0.7875
