data_image0
_chemical_formula_structural       K2Al2F8
_chemical_formula_sum              "K2 Al2 F8"
_cell_length_a       5.043
_cell_length_b       5.043
_cell_length_c       6.164
_cell_angle_alpha    90.0
_cell_angle_beta     90.0
_cell_angle_gamma    90.0

_space_group_name_H-M_alt    "P 1"
_space_group_IT_number       1

loop_
  _space_group_symop_operation_xyz
  'x, y, z'

loop_
  _atom_site_type_symbol
  _atom_site_label
  _atom_site_symmetry_multiplicity
  _atom_site_fract_x
  _atom_site_fract_y
  _atom_site_fract_z
  _atom_site_occupancy
  K   K1        1.0  0.0  0.4999999999999999  0.5  1.0000
  K   K2        1.0  0.49999999999999994  5.551115123125782e-17  0.5  1.0000
  Al  Al1       1.0  0.0  0.0  0.0  1.0000
  Al  Al2       1.0  0.49999999999999994  0.49999999999999994  0.0  1.0000
  F   F1        1.0  0.29889999999999994  0.7988999999999999  0.0  1.0000
  F   F2        1.0  0.7011000000000001  0.2011  0.0  1.0000
  F   F3        1.0  0.7988999999999999  0.7011000000000001  0.0  1.0000
  F   F4        1.0  0.20110000000000006  0.29889999999999994  0.0  1.0000
  F   F5        1.0  0.0  0.0  0.2842  1.0000
  F   F6        1.0  0.49999999999999994  0.49999999999999994  0.2842  1.0000
  F   F7        1.0  0.0  0.0  0.7158  1.0000
  F   F8        1.0  0.49999999999999994  0.49999999999999994  0.7158  1.0000
