data_image0
_chemical_formula_structural       Cr2Ta4O12
_chemical_formula_sum              "Cr2 Ta4 O12"
_cell_length_a       4.74
_cell_length_b       4.75
_cell_length_c       9.305000000000001
_cell_angle_alpha    90.0
_cell_angle_beta     90.95
_cell_angle_gamma    90.0

_space_group_name_H-M_alt    "P 1"
_space_group_IT_number       1

loop_
  _space_group_symop_operation_xyz
  'x, y, z'

loop_
  _atom_site_type_symbol
  _atom_site_label
  _atom_site_symmetry_multiplicity
  _atom_site_fract_x
  _atom_site_fract_y
  _atom_site_fract_z
  _atom_site_occupancy
  Cr  Cr1       1.0  0.0  0.0  0.0  1.0000
  Cr  Cr2       1.0  0.0  0.5  0.5  1.0000
  Ta  Ta1       1.0  2.9278033349819526e-18  0.0  0.3333300000000001  1.0000
  Ta  Ta2       1.0  0.9999999999999999  0.5  0.16666999999999996  1.0000
  Ta  Ta3       1.0  0.9999999999999999  0.0  0.6666699999999999  1.0000
  Ta  Ta4       1.0  0.0  0.5  0.8333300000000001  1.0000
  O   O1        1.0  0.2879999999999999  0.288  0.325  1.0000
  O   O2        1.0  0.7120000000000001  0.788  0.175  1.0000
  O   O3        1.0  0.7120000000000001  0.7119999999999999  0.675  1.0000
  O   O4        1.0  0.2879999999999999  0.21200000000000002  0.8250000000000001  1.0000
  O   O5        1.0  0.712  0.7119999999999999  0.325  1.0000
  O   O6        1.0  0.2879999999999999  0.21200000000000002  0.175  1.0000
  O   O7        1.0  0.2879999999999999  0.288  0.675  1.0000
  O   O8        1.0  0.7120000000000001  0.788  0.8250000000000001  1.0000
  O   O9        1.0  0.28  0.28  0.0  1.0000
  O   O10       1.0  0.7199999999999999  0.78  0.5  1.0000
  O   O11       1.0  0.7199999999999999  0.72  0.0  1.0000
  O   O12       1.0  0.28  0.21999999999999997  0.5  1.0000
