data_image0
_chemical_formula_structural       Sm4P20O56
_chemical_formula_sum              "Sm4 P20 O56"
_cell_length_a       8.75
_cell_length_b       12.989999999999998
_cell_length_c       8.944
_cell_angle_alpha    90.0
_cell_angle_beta     90.0
_cell_angle_gamma    90.45

_space_group_name_H-M_alt    "P 1"
_space_group_IT_number       1

loop_
  _space_group_symop_operation_xyz
  'x, y, z'

loop_
  _atom_site_type_symbol
  _atom_site_label
  _atom_site_symmetry_multiplicity
  _atom_site_fract_x
  _atom_site_fract_y
  _atom_site_fract_z
  _atom_site_occupancy
  Sm  Sm1       1.0  0.72264  0.00071  0.19043  1.0000
  Sm  Sm2       1.0  0.27736000000000005  0.49929  0.69043  1.0000
  Sm  Sm3       1.0  0.27736000000000005  0.99929  0.8095699999999999  1.0000
  Sm  Sm4       1.0  0.72264  0.50071  0.30956999999999996  1.0000
  P   P1        1.0  0.31387  0.00037999999999999997  0.24479999999999996  1.0000
  P   P2        1.0  0.68613  0.49962  0.7447999999999998  1.0000
  P   P3        1.0  0.68613  0.99962  0.7552000000000001  1.0000
  P   P4        1.0  0.31387  0.50038  0.25520000000000004  1.0000
  P   P5        1.0  0.23103999999999997  0.16449  0.4499  1.0000
  P   P6        1.0  0.7689600000000001  0.3355099999999999  0.9498999999999999  1.0000
  P   P7        1.0  0.7689600000000001  0.83551  0.5501  1.0000
  P   P8        1.0  0.23103999999999997  0.66449  0.05009999999999997  1.0000
  P   P9        1.0  0.74168  0.16581  0.5478899999999998  1.0000
  P   P10       1.0  0.25832  0.33418999999999993  0.047889999999999766  1.0000
  P   P11       1.0  0.25832  0.83419  0.4521100000000001  1.0000
  P   P12       1.0  0.74168  0.6658099999999999  0.95211  1.0000
  P   P13       1.0  0.49556  0.29683  0.49662  1.0000
  P   P14       1.0  0.50444  0.20317000000000002  0.9966200000000001  1.0000
  P   P15       1.0  0.50444  0.7031700000000001  0.5033799999999999  1.0000
  P   P16       1.0  0.49556  0.7968299999999998  0.003379999999999994  1.0000
  P   P17       1.0  0.9957399999999998  0.32702  0.49823999999999996  1.0000
  P   P18       1.0  0.0042600000000001526  0.17298000000000002  0.99824  1.0000
  P   P19       1.0  0.0042600000000001526  0.67298  0.50176  1.0000
  P   P20       1.0  0.9957399999999998  0.82702  0.001760000000000039  1.0000
  O   O1        1.0  0.46725999999999995  0.50347  0.18754  1.0000
  O   O2        1.0  0.53274  0.9965299999999999  0.68754  1.0000
  O   O3        1.0  0.53274  0.49653  0.81246  1.0000
  O   O4        1.0  0.46725999999999995  0.0034700000000000837  0.31245999999999996  1.0000
  O   O5        1.0  0.2870599999999999  0.0006699999999999999  0.08197  1.0000
  O   O6        1.0  0.71294  0.49933  0.58197  1.0000
  O   O7        1.0  0.71294  0.99933  0.9180299999999999  1.0000
  O   O8        1.0  0.2870599999999999  0.50067  0.41803  1.0000
  O   O9        1.0  0.20948  0.08944  0.31236  1.0000
  O   O10       1.0  0.7905199999999999  0.41056  0.81236  1.0000
  O   O11       1.0  0.7905199999999999  0.91056  0.68764  1.0000
  O   O12       1.0  0.20948  0.58944  0.18763999999999997  1.0000
  O   O13       1.0  0.77514  0.11064999999999998  0.40659  1.0000
  O   O14       1.0  0.22485999999999995  0.38935000000000003  0.90659  1.0000
  O   O15       1.0  0.22485999999999995  0.88935  0.59341  1.0000
  O   O16       1.0  0.77514  0.61065  0.09340999999999999  1.0000
  O   O17       1.0  0.23151999999999998  0.11432  0.59477  1.0000
  O   O18       1.0  0.76848  0.38568  0.09477000000000002  1.0000
  O   O19       1.0  0.76848  0.88568  0.40523  1.0000
  O   O20       1.0  0.23151999999999998  0.61432  0.90523  1.0000
  O   O21       1.0  0.22136  0.90196  0.30949  1.0000
  O   O22       1.0  0.77864  0.59804  0.80949  1.0000
  O   O23       1.0  0.77864  0.09804  0.6905099999999998  1.0000
  O   O24       1.0  0.22136  0.40196  0.19050999999999998  1.0000
  O   O25       1.0  0.37692  0.22462  0.40577999999999986  1.0000
  O   O26       1.0  0.6230800000000001  0.27538  0.9057799999999998  1.0000
  O   O27       1.0  0.6230800000000001  0.77538  0.59422  1.0000
  O   O28       1.0  0.37692  0.7246199999999999  0.09422000000000008  1.0000
  O   O29       1.0  0.09895999999999998  0.24144  0.41737999999999986  1.0000
  O   O30       1.0  0.90104  0.25856  0.9173799999999999  1.0000
  O   O31       1.0  0.90104  0.75856  0.5826200000000001  1.0000
  O   O32       1.0  0.09895999999999998  0.74144  0.08262000000000008  1.0000
  O   O33       1.0  0.59682  0.21226  0.5742199999999997  1.0000
  O   O34       1.0  0.40318  0.28774  0.07421999999999995  1.0000
  O   O35       1.0  0.40318  0.78774  0.4257800000000001  1.0000
  O   O36       1.0  0.59682  0.71226  0.9257800000000002  1.0000
  O   O37       1.0  0.86992  0.25543  0.58067  1.0000
  O   O38       1.0  0.13007999999999997  0.24457  0.08067000000000002  1.0000
  O   O39       1.0  0.13007999999999997  0.74457  0.4193299999999999  1.0000
  O   O40       1.0  0.86992  0.75543  0.91933  1.0000
  O   O41       1.0  0.41169  0.34955  0.6157899999999998  1.0000
  O   O42       1.0  0.58831  0.15044999999999997  0.11578999999999984  1.0000
  O   O43       1.0  0.58831  0.65045  0.38421000000000016  1.0000
  O   O44       1.0  0.41169  0.84955  0.8842100000000002  1.0000
  O   O45       1.0  0.08159  0.38022999999999996  0.61555  1.0000
  O   O46       1.0  0.9184099999999998  0.11977000000000004  0.11555000000000003  1.0000
  O   O47       1.0  0.9184099999999998  0.61977  0.38444999999999996  1.0000
  O   O48       1.0  0.08159  0.88023  0.88445  1.0000
  O   O49       1.0  0.58608  0.35272  0.38173  1.0000
  O   O50       1.0  0.4139199999999999  0.14728000000000002  0.8817299999999999  1.0000
  O   O51       1.0  0.4139199999999999  0.6472800000000001  0.61827  1.0000
  O   O52       1.0  0.58608  0.8527199999999999  0.11826999999999999  1.0000
  O   O53       1.0  0.91874  0.38525999999999994  0.37725  1.0000
  O   O54       1.0  0.08126  0.11474000000000006  0.87725  1.0000
  O   O55       1.0  0.08126  0.6147400000000001  0.62275  1.0000
  O   O56       1.0  0.91874  0.8852599999999998  0.12275000000000001  1.0000
