data_image0
_chemical_formula_structural       Ni8Mo12N4
_chemical_formula_sum              "Ni8 Mo12 N4"
_cell_length_a       6.634
_cell_length_b       6.634
_cell_length_c       6.634
_cell_angle_alpha    90.0
_cell_angle_beta     90.0
_cell_angle_gamma    90.0

_space_group_name_H-M_alt    "P 1"
_space_group_IT_number       1

loop_
  _space_group_symop_operation_xyz
  'x, y, z'

loop_
  _atom_site_type_symbol
  _atom_site_label
  _atom_site_symmetry_multiplicity
  _atom_site_fract_x
  _atom_site_fract_y
  _atom_site_fract_z
  _atom_site_occupancy
  Ni  Ni1       1.0  0.067  0.067  0.067  1.0000
  Ni  Ni2       1.0  0.18299999999999997  0.8169999999999998  0.317  1.0000
  Ni  Ni3       1.0  0.433  0.9330000000000002  0.567  1.0000
  Ni  Ni4       1.0  0.317  0.18299999999999997  0.8169999999999998  1.0000
  Ni  Ni5       1.0  0.567  0.433  0.9330000000000002  1.0000
  Ni  Ni6       1.0  0.8169999999999998  0.317  0.18299999999999997  1.0000
  Ni  Ni7       1.0  0.9330000000000002  0.567  0.433  1.0000
  Ni  Ni8       1.0  0.6830000000000002  0.6830000000000002  0.6830000000000002  1.0000
  Mo  Mo1       1.0  0.125  0.20200000000000004  0.452  1.0000
  Mo  Mo2       1.0  0.04799999999999996  0.875  0.702  1.0000
  Mo  Mo3       1.0  0.375  0.7979999999999999  0.952  1.0000
  Mo  Mo4       1.0  0.45200000000000007  0.125  0.20199999999999996  1.0000
  Mo  Mo5       1.0  0.625  0.29799999999999993  0.548  1.0000
  Mo  Mo6       1.0  0.875  0.702  0.04799999999999996  1.0000
  Mo  Mo7       1.0  0.20199999999999996  0.45200000000000007  0.125  1.0000
  Mo  Mo8       1.0  0.798  0.9520000000000001  0.375  1.0000
  Mo  Mo9       1.0  0.29799999999999993  0.548  0.625  1.0000
  Mo  Mo10      1.0  0.952  0.375  0.7979999999999999  1.0000
  Mo  Mo11      1.0  0.548  0.625  0.29799999999999993  1.0000
  Mo  Mo12      1.0  0.7020000000000001  0.04799999999999999  0.875  1.0000
  N   N1        1.0  0.375  0.375  0.375  1.0000
  N   N2        1.0  0.875  0.125  0.625  1.0000
  N   N3        1.0  0.125  0.625  0.875  1.0000
  N   N4        1.0  0.625  0.875  0.125  1.0000
