data_image0
_chemical_formula_structural       Ga80S144
_chemical_formula_sum              "Ga80 S144"
_cell_length_a       19.201
_cell_length_b       19.201
_cell_length_c       29.815
_cell_angle_alpha    90.0
_cell_angle_beta     90.0
_cell_angle_gamma    90.0

_space_group_name_H-M_alt    "P 1"
_space_group_IT_number       1

loop_
  _space_group_symop_operation_xyz
  'x, y, z'

loop_
  _atom_site_type_symbol
  _atom_site_label
  _atom_site_symmetry_multiplicity
  _atom_site_fract_x
  _atom_site_fract_y
  _atom_site_fract_z
  _atom_site_occupancy
  Ga  Ga1       1.0  0.04281  0.61749  0.12529  1.0000
  Ga  Ga2       1.0  0.45719000000000004  0.38251  0.62529  1.0000
  Ga  Ga3       1.0  0.63251  0.79281  0.37528999999999996  1.0000
  Ga  Ga4       1.0  0.8674900000000001  0.20718999999999999  0.87529  1.0000
  Ga  Ga5       1.0  0.45719000000000004  0.61749  0.87471  1.0000
  Ga  Ga6       1.0  0.04281  0.38251  0.37471  1.0000
  Ga  Ga7       1.0  0.8674900000000001  0.79281  0.6247099999999999  1.0000
  Ga  Ga8       1.0  0.63251  0.20718999999999999  0.12470999999999999  1.0000
  Ga  Ga9       1.0  0.54281  0.1174900000000001  0.62529  1.0000
  Ga  Ga10      1.0  0.9571900000000001  0.88251  0.12529  1.0000
  Ga  Ga11      1.0  0.13251000000000002  0.29281  0.87529  1.0000
  Ga  Ga12      1.0  0.3674900000000001  0.70719  0.37528999999999996  1.0000
  Ga  Ga13      1.0  0.9571900000000001  0.1174900000000001  0.37471  1.0000
  Ga  Ga14      1.0  0.54281  0.88251  0.87471  1.0000
  Ga  Ga15      1.0  0.3674900000000001  0.29281  0.12470999999999999  1.0000
  Ga  Ga16      1.0  0.13251000000000002  0.70719  0.6247099999999999  1.0000
  Ga  Ga17      1.0  0.9571900000000001  0.38251  0.87471  1.0000
  Ga  Ga18      1.0  0.54281  0.61749  0.37471  1.0000
  Ga  Ga19      1.0  0.3674900000000001  0.20718999999999999  0.6247099999999999  1.0000
  Ga  Ga20      1.0  0.13251000000000002  0.79281  0.12470999999999999  1.0000
  Ga  Ga21      1.0  0.54281  0.38251  0.12529  1.0000
  Ga  Ga22      1.0  0.9571900000000001  0.61749  0.62529  1.0000
  Ga  Ga23      1.0  0.13251000000000002  0.20718999999999999  0.37528999999999996  1.0000
  Ga  Ga24      1.0  0.3674900000000001  0.79281  0.87529  1.0000
  Ga  Ga25      1.0  0.45719000000000004  0.88251  0.37471  1.0000
  Ga  Ga26      1.0  0.04281  0.1174900000000001  0.87471  1.0000
  Ga  Ga27      1.0  0.8674900000000001  0.70719  0.12470999999999999  1.0000
  Ga  Ga28      1.0  0.63251  0.29281  0.6247099999999999  1.0000
  Ga  Ga29      1.0  0.04281  0.88251  0.62529  1.0000
  Ga  Ga30      1.0  0.45719000000000004  0.1174900000000001  0.12529  1.0000
  Ga  Ga31      1.0  0.63251  0.70719  0.87529  1.0000
  Ga  Ga32      1.0  0.8674900000000001  0.29281  0.37528999999999996  1.0000
  Ga  Ga33      1.0  0.16887  0.66495  0.03966999999999998  1.0000
  Ga  Ga34      1.0  0.33113000000000004  0.33504999999999996  0.5396699999999999  1.0000
  Ga  Ga35      1.0  0.58505  0.91887  0.28967  1.0000
  Ga  Ga36      1.0  0.91495  0.08113000000000002  0.78967  1.0000
  Ga  Ga37      1.0  0.33113000000000004  0.66495  0.96033  1.0000
  Ga  Ga38      1.0  0.16887  0.33504999999999996  0.46033  1.0000
  Ga  Ga39      1.0  0.91495  0.91887  0.71033  1.0000
  Ga  Ga40      1.0  0.58505  0.08113000000000002  0.21033  1.0000
  Ga  Ga41      1.0  0.6688700000000001  0.16495000000000015  0.5396699999999999  1.0000
  Ga  Ga42      1.0  0.83113  0.83505  0.03966999999999998  1.0000
  Ga  Ga43      1.0  0.08504999999999996  0.41887  0.78967  1.0000
  Ga  Ga44      1.0  0.41495000000000015  0.58113  0.28967  1.0000
  Ga  Ga45      1.0  0.83113  0.16495000000000015  0.46033  1.0000
  Ga  Ga46      1.0  0.6688700000000001  0.83505  0.96033  1.0000
  Ga  Ga47      1.0  0.41495000000000015  0.41887  0.21033  1.0000
  Ga  Ga48      1.0  0.08504999999999996  0.58113  0.71033  1.0000
  Ga  Ga49      1.0  0.83113  0.33504999999999996  0.96033  1.0000
  Ga  Ga50      1.0  0.6688700000000001  0.66495  0.46033  1.0000
  Ga  Ga51      1.0  0.41495000000000015  0.08113000000000002  0.71033  1.0000
  Ga  Ga52      1.0  0.08504999999999996  0.91887  0.21033  1.0000
  Ga  Ga53      1.0  0.6688700000000001  0.33504999999999996  0.03966999999999998  1.0000
  Ga  Ga54      1.0  0.83113  0.66495  0.5396699999999999  1.0000
  Ga  Ga55      1.0  0.08504999999999996  0.08113000000000002  0.28967  1.0000
  Ga  Ga56      1.0  0.41495000000000015  0.91887  0.78967  1.0000
  Ga  Ga57      1.0  0.33113000000000004  0.83505  0.46033  1.0000
  Ga  Ga58      1.0  0.16887  0.16495000000000015  0.96033  1.0000
  Ga  Ga59      1.0  0.91495  0.58113  0.21033  1.0000
  Ga  Ga60      1.0  0.58505  0.41887  0.71033  1.0000
  Ga  Ga61      1.0  0.16887  0.83505  0.5396699999999999  1.0000
  Ga  Ga62      1.0  0.33113000000000004  0.16495000000000015  0.03966999999999998  1.0000
  Ga  Ga63      1.0  0.58505  0.58113  0.78967  1.0000
  Ga  Ga64      1.0  0.91495  0.41887  0.28967  1.0000
  Ga  Ga65      1.0  0.0  0.75  0.03492  1.0000
  Ga  Ga66      1.0  0.5  0.25  0.53492  1.0000
  Ga  Ga67      1.0  0.5  0.75  0.28492  1.0000
  Ga  Ga68      1.0  0.0  0.25  0.7849199999999998  1.0000
  Ga  Ga69      1.0  0.5  0.75  0.9650799999999999  1.0000
  Ga  Ga70      1.0  0.0  0.25  0.46508  1.0000
  Ga  Ga71      1.0  0.0  0.75  0.71508  1.0000
  Ga  Ga72      1.0  0.5  0.25  0.21508  1.0000
  Ga  Ga73      1.0  0.0  0.25  0.9650799999999999  1.0000
  Ga  Ga74      1.0  0.5  0.75  0.46508  1.0000
  Ga  Ga75      1.0  0.5  0.25  0.71508  1.0000
  Ga  Ga76      1.0  0.0  0.75  0.21508  1.0000
  Ga  Ga77      1.0  0.5  0.25  0.03492  1.0000
  Ga  Ga78      1.0  0.0  0.75  0.53492  1.0000
  Ga  Ga79      1.0  0.0  0.25  0.28492  1.0000
  Ga  Ga80      1.0  0.5  0.75  0.7849199999999998  1.0000
  S   S1        1.0  0.9551200000000001  0.66171  0.07976999999999998  1.0000
  S   S2        1.0  0.54488  0.33829  0.57977  1.0000
  S   S3        1.0  0.58829  0.70512  0.32977  1.0000
  S   S4        1.0  0.91171  0.2948800000000001  0.82977  1.0000
  S   S5        1.0  0.54488  0.66171  0.92023  1.0000
  S   S6        1.0  0.9551200000000001  0.33829  0.42022999999999994  1.0000
  S   S7        1.0  0.91171  0.70512  0.6702299999999999  1.0000
  S   S8        1.0  0.58829  0.2948800000000001  0.17023000000000002  1.0000
  S   S9        1.0  0.45511999999999997  0.16171000000000002  0.57977  1.0000
  S   S10       1.0  0.04488  0.8382899999999999  0.07976999999999998  1.0000
  S   S11       1.0  0.08828999999999998  0.20512  0.82977  1.0000
  S   S12       1.0  0.41171  0.79488  0.32977  1.0000
  S   S13       1.0  0.04488  0.16171000000000002  0.42022999999999994  1.0000
  S   S14       1.0  0.45511999999999997  0.8382899999999999  0.92023  1.0000
  S   S15       1.0  0.41171  0.20512  0.17023000000000002  1.0000
  S   S16       1.0  0.08828999999999998  0.79488  0.6702299999999999  1.0000
  S   S17       1.0  0.04488  0.33829  0.92023  1.0000
  S   S18       1.0  0.45511999999999997  0.66171  0.42022999999999994  1.0000
  S   S19       1.0  0.41171  0.2948800000000001  0.6702299999999999  1.0000
  S   S20       1.0  0.08828999999999998  0.70512  0.17023000000000002  1.0000
  S   S21       1.0  0.45511999999999997  0.33829  0.07976999999999998  1.0000
  S   S22       1.0  0.04488  0.66171  0.57977  1.0000
  S   S23       1.0  0.08828999999999998  0.2948800000000001  0.32977  1.0000
  S   S24       1.0  0.41171  0.70512  0.82977  1.0000
  S   S25       1.0  0.54488  0.8382899999999999  0.42022999999999994  1.0000
  S   S26       1.0  0.9551200000000001  0.16171000000000002  0.92023  1.0000
  S   S27       1.0  0.91171  0.79488  0.17023000000000002  1.0000
  S   S28       1.0  0.58829  0.20512  0.6702299999999999  1.0000
  S   S29       1.0  0.9551200000000001  0.8382899999999999  0.57977  1.0000
  S   S30       1.0  0.54488  0.16171000000000002  0.07976999999999998  1.0000
  S   S31       1.0  0.58829  0.79488  0.82977  1.0000
  S   S32       1.0  0.91171  0.20512  0.32977  1.0000
  S   S33       1.0  0.1279  0.57473  0.08283999999999998  1.0000
  S   S34       1.0  0.37210000000000004  0.42527000000000004  0.58284  1.0000
  S   S35       1.0  0.67527  0.8779000000000001  0.33283999999999997  1.0000
  S   S36       1.0  0.82473  0.12209999999999999  0.83284  1.0000
  S   S37       1.0  0.37210000000000004  0.57473  0.91716  1.0000
  S   S38       1.0  0.1279  0.42527000000000004  0.41716000000000003  1.0000
  S   S39       1.0  0.82473  0.8779000000000001  0.66716  1.0000
  S   S40       1.0  0.67527  0.12209999999999999  0.16716000000000003  1.0000
  S   S41       1.0  0.6279  0.07472999999999996  0.58284  1.0000
  S   S42       1.0  0.8721  0.92527  0.08283999999999998  1.0000
  S   S43       1.0  0.17527000000000004  0.3779  0.83284  1.0000
  S   S44       1.0  0.32472999999999996  0.6221  0.33283999999999997  1.0000
  S   S45       1.0  0.8721  0.07472999999999996  0.41716000000000003  1.0000
  S   S46       1.0  0.6279  0.92527  0.91716  1.0000
  S   S47       1.0  0.32472999999999996  0.3779  0.16716000000000003  1.0000
  S   S48       1.0  0.17527000000000004  0.6221  0.66716  1.0000
  S   S49       1.0  0.8721  0.42527000000000004  0.91716  1.0000
  S   S50       1.0  0.6279  0.57473  0.41716000000000003  1.0000
  S   S51       1.0  0.32472999999999996  0.12209999999999999  0.66716  1.0000
  S   S52       1.0  0.17527000000000004  0.8779000000000001  0.16716000000000003  1.0000
  S   S53       1.0  0.6279  0.42527000000000004  0.08283999999999998  1.0000
  S   S54       1.0  0.8721  0.57473  0.58284  1.0000
  S   S55       1.0  0.17527000000000004  0.12209999999999999  0.33283999999999997  1.0000
  S   S56       1.0  0.32472999999999996  0.8779000000000001  0.83284  1.0000
  S   S57       1.0  0.37210000000000004  0.92527  0.41716000000000003  1.0000
  S   S58       1.0  0.1279  0.07472999999999996  0.91716  1.0000
  S   S59       1.0  0.82473  0.6221  0.16716000000000003  1.0000
  S   S60       1.0  0.67527  0.3779  0.66716  1.0000
  S   S61       1.0  0.1279  0.92527  0.58284  1.0000
  S   S62       1.0  0.37210000000000004  0.07472999999999996  0.08283999999999998  1.0000
  S   S63       1.0  0.67527  0.6221  0.83284  1.0000
  S   S64       1.0  0.82473  0.3779  0.33283999999999997  1.0000
  S   S65       1.0  0.08659  0.70918  0.99236  1.0000
  S   S66       1.0  0.41341  0.29081999999999997  0.49235999999999996  1.0000
  S   S67       1.0  0.54082  0.83659  0.24236  1.0000
  S   S68       1.0  0.9591799999999999  0.16341  0.7423599999999999  1.0000
  S   S69       1.0  0.41341  0.70918  0.00764  1.0000
  S   S70       1.0  0.08659  0.29081999999999997  0.50764  1.0000
  S   S71       1.0  0.9591799999999999  0.83659  0.75764  1.0000
  S   S72       1.0  0.54082  0.16341  0.25764  1.0000
  S   S73       1.0  0.58659  0.2091799999999999  0.49235999999999996  1.0000
  S   S74       1.0  0.91341  0.79082  0.99236  1.0000
  S   S75       1.0  0.04081999999999997  0.33659000000000006  0.7423599999999999  1.0000
  S   S76       1.0  0.45918  0.66341  0.24236  1.0000
  S   S77       1.0  0.91341  0.2091799999999999  0.50764  1.0000
  S   S78       1.0  0.58659  0.79082  0.00764  1.0000
  S   S79       1.0  0.45918  0.33659000000000006  0.25764  1.0000
  S   S80       1.0  0.04081999999999997  0.66341  0.75764  1.0000
  S   S81       1.0  0.91341  0.29081999999999997  0.00764  1.0000
  S   S82       1.0  0.58659  0.70918  0.50764  1.0000
  S   S83       1.0  0.45918  0.16341  0.75764  1.0000
  S   S84       1.0  0.04081999999999997  0.83659  0.25764  1.0000
  S   S85       1.0  0.58659  0.29081999999999997  0.99236  1.0000
  S   S86       1.0  0.91341  0.70918  0.49235999999999996  1.0000
  S   S87       1.0  0.04081999999999997  0.16341  0.24236  1.0000
  S   S88       1.0  0.45918  0.83659  0.7423599999999999  1.0000
  S   S89       1.0  0.41341  0.79082  0.50764  1.0000
  S   S90       1.0  0.08659  0.2091799999999999  0.00764  1.0000
  S   S91       1.0  0.9591799999999999  0.66341  0.25764  1.0000
  S   S92       1.0  0.54082  0.33659000000000006  0.75764  1.0000
  S   S93       1.0  0.08659  0.79082  0.49235999999999996  1.0000
  S   S94       1.0  0.41341  0.2091799999999999  0.99236  1.0000
  S   S95       1.0  0.54082  0.66341  0.7423599999999999  1.0000
  S   S96       1.0  0.9591799999999999  0.33659000000000006  0.24236  1.0000
  S   S97       1.0  0.99932  0.53137  0.16741  1.0000
  S   S98       1.0  0.50068  0.46863  0.66741  1.0000
  S   S99       1.0  0.71863  0.74932  0.41740999999999995  1.0000
  S   S100      1.0  0.78137  0.25068  0.9174100000000001  1.0000
  S   S101      1.0  0.50068  0.53137  0.8325899999999999  1.0000
  S   S102      1.0  0.99932  0.46863  0.33259  1.0000
  S   S103      1.0  0.78137  0.74932  0.5825899999999999  1.0000
  S   S104      1.0  0.71863  0.25068  0.08259  1.0000
  S   S105      1.0  0.49932  0.0313699999999999  0.66741  1.0000
  S   S106      1.0  0.00068  0.9686300000000001  0.16741  1.0000
  S   S107      1.0  0.21863  0.24932  0.9174100000000001  1.0000
  S   S108      1.0  0.2813699999999999  0.75068  0.41740999999999995  1.0000
  S   S109      1.0  0.00068  0.0313699999999999  0.33259  1.0000
  S   S110      1.0  0.49932  0.9686300000000001  0.8325899999999999  1.0000
  S   S111      1.0  0.2813699999999999  0.24932  0.08259  1.0000
  S   S112      1.0  0.21863  0.75068  0.5825899999999999  1.0000
  S   S113      1.0  0.00068  0.46863  0.8325899999999999  1.0000
  S   S114      1.0  0.49932  0.53137  0.33259  1.0000
  S   S115      1.0  0.2813699999999999  0.25068  0.5825899999999999  1.0000
  S   S116      1.0  0.21863  0.74932  0.08259  1.0000
  S   S117      1.0  0.49932  0.46863  0.16741  1.0000
  S   S118      1.0  0.00068  0.53137  0.66741  1.0000
  S   S119      1.0  0.21863  0.25068  0.41740999999999995  1.0000
  S   S120      1.0  0.2813699999999999  0.74932  0.9174100000000001  1.0000
  S   S121      1.0  0.50068  0.9686300000000001  0.33259  1.0000
  S   S122      1.0  0.99932  0.0313699999999999  0.8325899999999999  1.0000
  S   S123      1.0  0.78137  0.75068  0.08259  1.0000
  S   S124      1.0  0.71863  0.24932  0.5825899999999999  1.0000
  S   S125      1.0  0.99932  0.9686300000000001  0.66741  1.0000
  S   S126      1.0  0.50068  0.0313699999999999  0.16741  1.0000
  S   S127      1.0  0.71863  0.75068  0.9174100000000001  1.0000
  S   S128      1.0  0.78137  0.24932  0.41740999999999995  1.0000
  S   S129      1.0  0.25  0.6056  0.0  1.0000
  S   S130      1.0  0.25  0.3944  0.5  1.0000
  S   S131      1.0  0.6444  0.0  0.25  1.0000
  S   S132      1.0  0.8556000000000001  0.0  0.75  1.0000
  S   S133      1.0  0.75  0.10559999999999993  0.5  1.0000
  S   S134      1.0  0.75  0.8944  0.0  1.0000
  S   S135      1.0  0.1444  0.5  0.75  1.0000
  S   S136      1.0  0.3555999999999999  0.5  0.25  1.0000
  S   S137      1.0  0.75  0.3944  0.0  1.0000
  S   S138      1.0  0.75  0.6056  0.5  1.0000
  S   S139      1.0  0.3555999999999999  0.0  0.75  1.0000
  S   S140      1.0  0.1444  0.0  0.25  1.0000
  S   S141      1.0  0.25  0.8944  0.5  1.0000
  S   S142      1.0  0.25  0.10559999999999993  0.0  1.0000
  S   S143      1.0  0.8556000000000001  0.5  0.25  1.0000
  S   S144      1.0  0.6444  0.5  0.75  1.0000
