data_image0
_chemical_formula_structural       Tl20Zn2K16
_chemical_formula_sum              "Tl20 Zn2 K16"
_cell_length_a       10.319
_cell_length_b       10.319
_cell_length_c       13.859
_cell_angle_alpha    90.0
_cell_angle_beta     90.0
_cell_angle_gamma    90.0

_space_group_name_H-M_alt    "P 1"
_space_group_IT_number       1

loop_
  _space_group_symop_operation_xyz
  'x, y, z'

loop_
  _atom_site_type_symbol
  _atom_site_label
  _atom_site_symmetry_multiplicity
  _atom_site_fract_x
  _atom_site_fract_y
  _atom_site_fract_z
  _atom_site_occupancy
  Tl  Tl1       1.0  0.8448  0.9892  0.33917000000000014  1.0000
  Tl  Tl2       1.0  0.6552  0.5108  0.33917000000000014  1.0000
  Tl  Tl3       1.0  0.8448  0.5108  0.16082999999999995  1.0000
  Tl  Tl4       1.0  0.6552  0.9892  0.16082999999999995  1.0000
  Tl  Tl5       1.0  0.9892  0.8448  0.16082999999999995  1.0000
  Tl  Tl6       1.0  0.5108  0.6552  0.16082999999999995  1.0000
  Tl  Tl7       1.0  0.9892  0.6552  0.33917000000000014  1.0000
  Tl  Tl8       1.0  0.5108  0.8448  0.33917000000000014  1.0000
  Tl  Tl9       1.0  0.1552  0.010800000000000032  0.66083  1.0000
  Tl  Tl10      1.0  0.34479999999999994  0.48919999999999986  0.66083  1.0000
  Tl  Tl11      1.0  0.1552  0.48919999999999986  0.8391700000000002  1.0000
  Tl  Tl12      1.0  0.34479999999999994  0.010800000000000032  0.8391700000000002  1.0000
  Tl  Tl13      1.0  0.010800000000000032  0.1552  0.8391700000000002  1.0000
  Tl  Tl14      1.0  0.48919999999999986  0.34479999999999994  0.8391700000000002  1.0000
  Tl  Tl15      1.0  0.010800000000000032  0.34479999999999994  0.66083  1.0000
  Tl  Tl16      1.0  0.48919999999999986  0.1552  0.66083  1.0000
  Tl  Tl17      1.0  0.25  0.25  0.5398  1.0000
  Tl  Tl18      1.0  0.25  0.25  0.9602  1.0000
  Tl  Tl19      1.0  0.7499999999999999  0.7499999999999999  0.46020000000000005  1.0000
  Tl  Tl20      1.0  0.7499999999999999  0.7499999999999999  0.03980000000000006  1.0000
  Zn  Zn1       1.0  0.25  0.25  0.75  1.0000
  Zn  Zn2       1.0  0.7499999999999999  0.7499999999999999  0.25  1.0000
  K   K1        1.0  0.8223  0.046  0.6058  1.0000
  K   K2        1.0  0.6777  0.45399999999999996  0.6058  1.0000
  K   K3        1.0  0.8223  0.45399999999999996  0.8942  1.0000
  K   K4        1.0  0.6777  0.046  0.8942  1.0000
  K   K5        1.0  0.046  0.8223  0.8942  1.0000
  K   K6        1.0  0.45399999999999996  0.6777  0.8942  1.0000
  K   K7        1.0  0.046  0.6777  0.6058  1.0000
  K   K8        1.0  0.45399999999999996  0.8223  0.6058  1.0000
  K   K9        1.0  0.17769999999999997  0.954  0.3942  1.0000
  K   K10       1.0  0.32230000000000003  0.546  0.3942  1.0000
  K   K11       1.0  0.17769999999999997  0.546  0.1057999999999999  1.0000
  K   K12       1.0  0.32230000000000003  0.954  0.1057999999999999  1.0000
  K   K13       1.0  0.954  0.17769999999999997  0.1057999999999999  1.0000
  K   K14       1.0  0.546  0.32230000000000003  0.1057999999999999  1.0000
  K   K15       1.0  0.954  0.32230000000000003  0.3942  1.0000
  K   K16       1.0  0.546  0.17769999999999997  0.3942  1.0000
