data_image0
_chemical_formula_structural       Fe8Al44
_chemical_formula_sum              "Fe8 Al44"
_cell_length_a       6.161
_cell_length_b       6.175
_cell_length_c       20.813
_cell_angle_alpha    90.0
_cell_angle_beta     90.42
_cell_angle_gamma    90.0

_space_group_name_H-M_alt    "P 1"
_space_group_IT_number       1

loop_
  _space_group_symop_operation_xyz
  'x, y, z'

loop_
  _atom_site_type_symbol
  _atom_site_label
  _atom_site_symmetry_multiplicity
  _atom_site_fract_x
  _atom_site_fract_y
  _atom_site_fract_z
  _atom_site_occupancy
  Fe  Fe1       1.0  0.5024  0.2605  0.13671  1.0000
  Fe  Fe2       1.0  0.49760000000000004  0.7395  0.8632899999999999  1.0000
  Fe  Fe3       1.0  0.5024  0.7605  0.63671  1.0000
  Fe  Fe4       1.0  0.002399999999999958  0.7395  0.13671  1.0000
  Fe  Fe5       1.0  0.9976000000000002  0.2605  0.8632899999999999  1.0000
  Fe  Fe6       1.0  0.9976000000000002  0.7605  0.36329  1.0000
  Fe  Fe7       1.0  0.49760000000000004  0.2395  0.36329  1.0000
  Fe  Fe8       1.0  0.002399999999999958  0.2395  0.63671  1.0000
  Al  Al1       1.0  0.3583  0.6062  0.1863  1.0000
  Al  Al2       1.0  0.6416999999999999  0.39380000000000004  0.8137  1.0000
  Al  Al3       1.0  0.3583  0.10619999999999985  0.6863  1.0000
  Al  Al4       1.0  0.8583000000000001  0.39380000000000004  0.1863  1.0000
  Al  Al5       1.0  0.1417  0.6062  0.8137  1.0000
  Al  Al6       1.0  0.1417  0.10619999999999985  0.3137  1.0000
  Al  Al7       1.0  0.6416999999999999  0.8938  0.3137  1.0000
  Al  Al8       1.0  0.8583000000000001  0.8938  0.6863  1.0000
  Al  Al9       1.0  0.3387  0.9116  0.0897  1.0000
  Al  Al10      1.0  0.6613000000000001  0.08840000000000002  0.9103  1.0000
  Al  Al11      1.0  0.3387  0.41159999999999997  0.5897  1.0000
  Al  Al12      1.0  0.8387  0.08840000000000002  0.0897  1.0000
  Al  Al13      1.0  0.1613  0.9116  0.9103  1.0000
  Al  Al14      1.0  0.1613  0.41159999999999997  0.41030000000000005  1.0000
  Al  Al15      1.0  0.6613000000000001  0.5884  0.41030000000000005  1.0000
  Al  Al16      1.0  0.8387  0.5884  0.5897  1.0000
  Al  Al17      1.0  0.1669  0.4167  0.0908  1.0000
  Al  Al18      1.0  0.8331000000000001  0.5832999999999999  0.9092  1.0000
  Al  Al19      1.0  0.1669  0.9167000000000001  0.5908  1.0000
  Al  Al20      1.0  0.6669  0.5832999999999999  0.0908  1.0000
  Al  Al21      1.0  0.3331  0.4167  0.9092  1.0000
  Al  Al22      1.0  0.3331  0.9167000000000001  0.4092  1.0000
  Al  Al23      1.0  0.8331000000000001  0.08329999999999999  0.4092  1.0000
  Al  Al24      1.0  0.6669  0.08329999999999999  0.5908  1.0000
  Al  Al25      1.0  0.4972  0.2666  0.018100000000000005  1.0000
  Al  Al26      1.0  0.5028  0.7333999999999999  0.9819000000000001  1.0000
  Al  Al27      1.0  0.4972  0.7666  0.5181  1.0000
  Al  Al28      1.0  0.9972  0.7333999999999999  0.018100000000000005  1.0000
  Al  Al29      1.0  0.002800000000000029  0.2666  0.9819000000000001  1.0000
  Al  Al30      1.0  0.0028000000000000243  0.7666  0.4819  1.0000
  Al  Al31      1.0  0.5028  0.2334  0.4819  1.0000
  Al  Al32      1.0  0.9972  0.2334  0.5181  1.0000
  Al  Al33      1.0  0.5  0.25  0.25  1.0000
  Al  Al34      1.0  0.5  0.75  0.75  1.0000
  Al  Al35      1.0  0.0  0.75  0.25  1.0000
  Al  Al36      1.0  0.0  0.25  0.75  1.0000
  Al  Al37      1.0  0.1526  0.1  0.1836  1.0000
  Al  Al38      1.0  0.8473999999999999  0.9  0.8164  1.0000
  Al  Al39      1.0  0.1526  0.6  0.6836  1.0000
  Al  Al40      1.0  0.6526000000000002  0.9  0.1836  1.0000
  Al  Al41      1.0  0.34740000000000004  0.1  0.8164  1.0000
  Al  Al42      1.0  0.34740000000000004  0.6  0.3164  1.0000
  Al  Al43      1.0  0.8473999999999999  0.4  0.3164  1.0000
  Al  Al44      1.0  0.6526000000000002  0.4  0.6836  1.0000
