data_image0
_chemical_formula_structural       Ga2P2O8
_chemical_formula_sum              "Ga2 P2 O8"
_cell_length_a       4.7343
_cell_length_b       4.7343
_cell_length_c       7.0896
_cell_angle_alpha    90.0
_cell_angle_beta     90.0
_cell_angle_gamma    90.0

_space_group_name_H-M_alt    "P 1"
_space_group_IT_number       1

loop_
  _space_group_symop_operation_xyz
  'x, y, z'

loop_
  _atom_site_type_symbol
  _atom_site_label
  _atom_site_symmetry_multiplicity
  _atom_site_fract_x
  _atom_site_fract_y
  _atom_site_fract_z
  _atom_site_occupancy
  Ga  Ga1       1.0  0.5  0.5  0.0  0.7002
  Ga  Ga2       1.0  0.0  0.0  0.5  0.7179
  P   P1        1.0  0.5  0.0  0.7456  1.0000
  P   P2        1.0  0.0  0.5  0.2544  1.0000
  O   O1        1.0  0.7299  0.1326  0.6304  1.0000
  O   O2        1.0  0.1326  0.2701  0.3696000000000001  1.0000
  O   O3        1.0  0.2701  0.8673999999999998  0.6304  1.0000
  O   O4        1.0  0.8673999999999998  0.7299  0.3696000000000001  1.0000
  O   O5        1.0  0.6286  0.7717999999999998  0.8669000000000002  1.0000
  O   O6        1.0  0.7717999999999998  0.37139999999999995  0.1330999999999999  1.0000
  O   O7        1.0  0.37139999999999995  0.22820000000000004  0.8669000000000002  1.0000
  O   O8        1.0  0.22820000000000004  0.6286  0.1330999999999999  1.0000
  B   B1        1.0  0.5  0.5  0.0  0.2998
  B   B2        1.0  0.0  0.0  0.5  0.2821
