data_image0
_chemical_formula_structural       Cs4Te8O24Te8
_chemical_formula_sum              "Cs4 Te16 O24"
_cell_length_a       7.327
_cell_length_b       7.3012
_cell_length_c       10.2689
_cell_angle_alpha    90.0
_cell_angle_beta     90.0
_cell_angle_gamma    90.0

_space_group_name_H-M_alt    "P 1"
_space_group_IT_number       1

loop_
  _space_group_symop_operation_xyz
  'x, y, z'

loop_
  _atom_site_type_symbol
  _atom_site_label
  _atom_site_symmetry_multiplicity
  _atom_site_fract_x
  _atom_site_fract_y
  _atom_site_fract_z
  _atom_site_occupancy
  Cs  Cs1       1.0  0.9971000000000001  0.24999999999999994  0.6192  1.0000
  Cs  Cs2       1.0  0.5029  0.7499999999999999  0.11919999999999996  1.0000
  Cs  Cs3       1.0  0.0029  0.7499999999999999  0.3808  1.0000
  Cs  Cs4       1.0  0.49710000000000004  0.24999999999999997  0.8807999999999999  1.0000
  Te  Te1       1.0  0.2461  0.24999999999999994  0.2472  1.0000
  Te  Te2       1.0  0.2539  0.7499999999999999  0.7472  1.0000
  Te  Te3       1.0  0.7539000000000001  0.7499999999999999  0.7528  1.0000
  Te  Te4       1.0  0.7461  0.24999999999999997  0.2528  1.0000
  Te  Te5       1.0  0.0  0.4999999999999999  0.0  0.4970
  Te  Te6       1.0  0.5  0.0  0.5  0.4970
  Te  Te7       1.0  0.0  5.551115123125782e-17  0.0  0.4970
  Te  Te8       1.0  0.5  0.49999999999999994  0.5  0.4970
  O   O1        1.0  0.4956000000000001  0.24999999999999994  0.192  1.0000
  O   O2        1.0  0.0043999999999999595  0.7499999999999999  0.692  1.0000
  O   O3        1.0  0.5044  0.7499999999999999  0.808  1.0000
  O   O4        1.0  0.9956  0.24999999999999997  0.308  1.0000
  O   O5        1.0  0.0143  0.24999999999999994  0.928  0.7430
  O   O6        1.0  0.4857  0.7499999999999999  0.42799999999999994  0.7430
  O   O7        1.0  0.9857000000000001  0.7499999999999999  0.07199999999999995  0.7430
  O   O8        1.0  0.5143  0.24999999999999997  0.572  0.7430
  O   O9        1.0  0.2056  0.4454  0.1302  1.0000
  O   O10       1.0  0.2944  0.9454  0.6302  1.0000
  O   O11       1.0  0.2056  0.05459999999999998  0.1302  1.0000
  O   O12       1.0  0.2944  0.5545999999999999  0.6302  1.0000
  O   O13       1.0  0.7944000000000001  0.5545999999999999  0.8698  1.0000
  O   O14       1.0  0.7056  0.05459999999999998  0.3698  1.0000
  O   O15       1.0  0.7944000000000001  0.9454  0.8698  1.0000
  O   O16       1.0  0.7056  0.4454  0.3698  1.0000
  O   O17       1.0  0.8034  0.4352999999999999  0.1225  1.0000
  O   O18       1.0  0.6966  0.9352999999999999  0.6225  1.0000
  O   O19       1.0  0.8034  0.06470000000000004  0.1225  1.0000
  O   O20       1.0  0.6966  0.5647  0.6225  1.0000
  O   O21       1.0  0.1966  0.5647  0.8775  1.0000
  O   O22       1.0  0.3033999999999999  0.06470000000000004  0.3775  1.0000
  O   O23       1.0  0.1966  0.9352999999999999  0.8775  1.0000
  O   O24       1.0  0.3033999999999999  0.4352999999999999  0.3775  1.0000
  Te  Te9       1.0  0.013  0.5141  0.0306  0.2510
  Te  Te10      1.0  0.487  0.014100000000000001  0.5306  0.2510
  Te  Te11      1.0  0.013  0.9859  0.0306  0.2510
  Te  Te12      1.0  0.487  0.4859  0.5306  0.2510
  Te  Te13      1.0  0.987  0.4859  0.9694  0.2510
  Te  Te14      1.0  0.513  0.9859  0.46939999999999993  0.2510
  Te  Te15      1.0  0.987  0.014100000000000001  0.9694  0.2510
  Te  Te16      1.0  0.513  0.5141  0.46939999999999993  0.2510
