data_image0
_chemical_formula_structural       Na16Nb16O56
_chemical_formula_sum              "Na16 Nb16 O56"
_cell_length_a       10.4
_cell_length_b       10.4
_cell_length_c       10.4
_cell_angle_alpha    90.0
_cell_angle_beta     90.0
_cell_angle_gamma    90.0

_space_group_name_H-M_alt    "P 1"
_space_group_IT_number       1

loop_
  _space_group_symop_operation_xyz
  'x, y, z'

loop_
  _atom_site_type_symbol
  _atom_site_label
  _atom_site_symmetry_multiplicity
  _atom_site_fract_x
  _atom_site_fract_y
  _atom_site_fract_z
  _atom_site_occupancy
  Na  Na1       1.0  0.625  0.625  0.625  0.4100
  Na  Na2       1.0  0.625  0.375  0.375  0.4100
  Na  Na3       1.0  0.375  0.625  0.375  0.4100
  Na  Na4       1.0  0.375  0.375  0.625  0.4100
  Na  Na5       1.0  0.625  0.8749999999999999  0.8749999999999999  0.4100
  Na  Na6       1.0  0.8749999999999999  0.625  0.8749999999999999  0.4100
  Na  Na7       1.0  0.8749999999999999  0.8749999999999999  0.625  0.4100
  Na  Na8       1.0  0.625  0.125  0.125  0.4100
  Na  Na9       1.0  0.125  0.625  0.125  0.4100
  Na  Na10      1.0  0.125  0.125  0.625  0.4100
  Na  Na11      1.0  0.125  0.375  0.8749999999999999  0.4100
  Na  Na12      1.0  0.125  0.8749999999999999  0.375  0.4100
  Na  Na13      1.0  0.375  0.125  0.8749999999999999  0.4100
  Na  Na14      1.0  0.8749999999999999  0.125  0.375  0.4100
  Na  Na15      1.0  0.375  0.8749999999999999  0.125  0.4100
  Na  Na16      1.0  0.8749999999999999  0.375  0.125  0.4100
  Nb  Nb1       1.0  0.125  0.125  0.125  1.0000
  Nb  Nb2       1.0  0.125  0.8749999999999999  0.8749999999999999  1.0000
  Nb  Nb3       1.0  0.8749999999999999  0.125  0.8749999999999999  1.0000
  Nb  Nb4       1.0  0.8749999999999999  0.8749999999999999  0.125  1.0000
  Nb  Nb5       1.0  0.125  0.375  0.375  1.0000
  Nb  Nb6       1.0  0.375  0.125  0.375  1.0000
  Nb  Nb7       1.0  0.375  0.375  0.125  1.0000
  Nb  Nb8       1.0  0.125  0.625  0.625  1.0000
  Nb  Nb9       1.0  0.625  0.125  0.625  1.0000
  Nb  Nb10      1.0  0.625  0.625  0.125  1.0000
  Nb  Nb11      1.0  0.625  0.8749999999999999  0.375  1.0000
  Nb  Nb12      1.0  0.625  0.375  0.8749999999999999  1.0000
  Nb  Nb13      1.0  0.8749999999999999  0.625  0.375  1.0000
  Nb  Nb14      1.0  0.375  0.625  0.8749999999999999  1.0000
  Nb  Nb15      1.0  0.8749999999999999  0.375  0.625  1.0000
  Nb  Nb16      1.0  0.375  0.8749999999999999  0.625  1.0000
  O   O1        1.0  0.5  0.5  0.5  0.7600
  O   O2        1.0  0.75  0.75  0.75  0.7600
  O   O3        1.0  0.5  0.0  0.0  0.7600
  O   O4        1.0  0.0  0.5  0.0  0.7600
  O   O5        1.0  0.0  0.0  0.5  0.7600
  O   O6        1.0  0.75  0.25  0.25  0.7600
  O   O7        1.0  0.25  0.75  0.25  0.7600
  O   O8        1.0  0.25  0.25  0.75  0.7600
  O   O9        1.0  0.187  0.0  0.0  1.0000
  O   O10       1.0  0.0  0.0  0.187  1.0000
  O   O11       1.0  0.0  0.187  0.0  1.0000
  O   O12       1.0  0.0  0.0  0.813  1.0000
  O   O13       1.0  0.0  0.813  0.0  1.0000
  O   O14       1.0  0.813  0.0  0.0  1.0000
  O   O15       1.0  0.063  0.25  0.25  1.0000
  O   O16       1.0  0.25  0.25  0.063  1.0000
  O   O17       1.0  0.25  0.063  0.25  1.0000
  O   O18       1.0  0.25  0.25  0.437  1.0000
  O   O19       1.0  0.25  0.437  0.25  1.0000
  O   O20       1.0  0.437  0.25  0.25  1.0000
  O   O21       1.0  0.187  0.5  0.5  1.0000
  O   O22       1.0  0.687  0.0  0.5  1.0000
  O   O23       1.0  0.687  0.5  0.0  1.0000
  O   O24       1.0  0.0  0.5  0.687  1.0000
  O   O25       1.0  0.5  0.0  0.687  1.0000
  O   O26       1.0  0.5  0.5  0.187  1.0000
  O   O27       1.0  0.0  0.687  0.5  1.0000
  O   O28       1.0  0.5  0.187  0.5  1.0000
  O   O29       1.0  0.5  0.687  0.0  1.0000
  O   O30       1.0  0.0  0.5  0.313  1.0000
  O   O31       1.0  0.5  0.0  0.313  1.0000
  O   O32       1.0  0.5  0.5  0.813  1.0000
  O   O33       1.0  0.0  0.313  0.5  1.0000
  O   O34       1.0  0.5  0.813  0.5  1.0000
  O   O35       1.0  0.5  0.313  0.0  1.0000
  O   O36       1.0  0.813  0.5  0.5  1.0000
  O   O37       1.0  0.313  0.0  0.5  1.0000
  O   O38       1.0  0.313  0.5  0.0  1.0000
  O   O39       1.0  0.063  0.75  0.75  1.0000
  O   O40       1.0  0.563  0.25  0.75  1.0000
  O   O41       1.0  0.563  0.75  0.25  1.0000
  O   O42       1.0  0.25  0.75  0.563  1.0000
  O   O43       1.0  0.75  0.25  0.563  1.0000
  O   O44       1.0  0.75  0.75  0.063  1.0000
  O   O45       1.0  0.25  0.563  0.75  1.0000
  O   O46       1.0  0.75  0.063  0.75  1.0000
  O   O47       1.0  0.75  0.563  0.25  1.0000
  O   O48       1.0  0.25  0.75  0.937  1.0000
  O   O49       1.0  0.75  0.25  0.937  1.0000
  O   O50       1.0  0.75  0.75  0.437  1.0000
  O   O51       1.0  0.25  0.937  0.75  1.0000
  O   O52       1.0  0.75  0.437  0.75  1.0000
  O   O53       1.0  0.75  0.937  0.25  1.0000
  O   O54       1.0  0.437  0.75  0.75  1.0000
  O   O55       1.0  0.937  0.25  0.75  1.0000
  O   O56       1.0  0.937  0.75  0.25  1.0000
  U   U1        1.0  0.625  0.625  0.625  0.2250
  U   U2        1.0  0.625  0.375  0.375  0.2250
  U   U3        1.0  0.375  0.625  0.375  0.2250
  U   U4        1.0  0.375  0.375  0.625  0.2250
  U   U5        1.0  0.625  0.8749999999999999  0.8749999999999999  0.2250
  U   U6        1.0  0.8749999999999999  0.625  0.8749999999999999  0.2250
  U   U7        1.0  0.8749999999999999  0.8749999999999999  0.625  0.2250
  U   U8        1.0  0.625  0.125  0.125  0.2250
  U   U9        1.0  0.125  0.625  0.125  0.2250
  U   U10       1.0  0.125  0.125  0.625  0.2250
  U   U11       1.0  0.125  0.375  0.8749999999999999  0.2250
  U   U12       1.0  0.125  0.8749999999999999  0.375  0.2250
  U   U13       1.0  0.375  0.125  0.8749999999999999  0.2250
  U   U14       1.0  0.8749999999999999  0.125  0.375  0.2250
  U   U15       1.0  0.375  0.8749999999999999  0.125  0.2250
  U   U16       1.0  0.8749999999999999  0.375  0.125  0.2250
