data_image0
_chemical_formula_structural       Sn4Mn4S17K13
_chemical_formula_sum              "Sn4 Mn4 S17 K13"
_cell_length_a       10.064
_cell_length_b       10.064
_cell_length_c       10.064
_cell_angle_alpha    90.0
_cell_angle_beta     90.0
_cell_angle_gamma    90.0

_space_group_name_H-M_alt    "P 1"
_space_group_IT_number       1

loop_
  _space_group_symop_operation_xyz
  'x, y, z'

loop_
  _atom_site_type_symbol
  _atom_site_label
  _atom_site_symmetry_multiplicity
  _atom_site_fract_x
  _atom_site_fract_y
  _atom_site_fract_z
  _atom_site_occupancy
  Sn  Sn1       1.0  0.22667  0.22667  0.22667  1.0000
  Sn  Sn2       1.0  0.77333  0.77333  0.22667  1.0000
  Sn  Sn3       1.0  0.77333  0.22667  0.77333  1.0000
  Sn  Sn4       1.0  0.22667  0.77333  0.77333  1.0000
  Mn  Mn1       1.0  0.13607  0.13607  0.86393  1.0000
  Mn  Mn2       1.0  0.86393  0.86393  0.86393  1.0000
  Mn  Mn3       1.0  0.86393  0.13607  0.13607  1.0000
  Mn  Mn4       1.0  0.13607  0.86393  0.13607  1.0000
  S   S1        1.0  0.0  0.0  0.0  1.0000
  S   S2        1.0  0.9988299999999999  0.27676  0.27676  1.0000
  S   S3        1.0  0.00117  0.72324  0.27676  1.0000
  S   S4        1.0  0.00117  0.27676  0.72324  1.0000
  S   S5        1.0  0.9988299999999999  0.72324  0.72324  1.0000
  S   S6        1.0  0.27676  0.9988299999999999  0.27676  1.0000
  S   S7        1.0  0.27676  0.00117  0.72324  1.0000
  S   S8        1.0  0.72324  0.00117  0.27676  1.0000
  S   S9        1.0  0.72324  0.9988299999999999  0.72324  1.0000
  S   S10       1.0  0.27676  0.27676  0.9988299999999999  1.0000
  S   S11       1.0  0.72324  0.27676  0.00117  1.0000
  S   S12       1.0  0.27676  0.72324  0.00117  1.0000
  S   S13       1.0  0.72324  0.72324  0.9988299999999999  1.0000
  S   S14       1.0  0.36056  0.36056  0.36056  1.0000
  S   S15       1.0  0.63944  0.63944  0.36056  1.0000
  S   S16       1.0  0.63944  0.36056  0.63944  1.0000
  S   S17       1.0  0.36056  0.63944  0.63944  1.0000
  K   K1        1.0  0.0  0.5  0.0  1.0000
  K   K2        1.0  0.0  0.0  0.5  1.0000
  K   K3        1.0  0.5  0.0  0.0  1.0000
  K   K4        1.0  0.33449  0.33449  0.66551  1.0000
  K   K5        1.0  0.66551  0.66551  0.66551  1.0000
  K   K6        1.0  0.66551  0.33449  0.33449  1.0000
  K   K7        1.0  0.33449  0.66551  0.33449  1.0000
  K   K8        1.0  0.9438000000000001  0.5  0.5  0.5000
  K   K9        1.0  0.0562  0.5  0.5  0.5000
  K   K10       1.0  0.5  0.9438000000000001  0.5  0.5000
  K   K11       1.0  0.5  0.0562  0.5  0.5000
  K   K12       1.0  0.5  0.5  0.9438000000000001  0.5000
  K   K13       1.0  0.5  0.5  0.0562  0.5000
