data_image0
_chemical_formula_structural       Ce4P12O36
_chemical_formula_sum              "Ce4 P12 O36"
_cell_length_a       11.236
_cell_length_b       8.611
_cell_length_c       7.3458
_cell_angle_alpha    90.0
_cell_angle_beta     90.0
_cell_angle_gamma    90.0

_space_group_name_H-M_alt    "P 1"
_space_group_IT_number       1

loop_
  _space_group_symop_operation_xyz
  'x, y, z'

loop_
  _atom_site_type_symbol
  _atom_site_label
  _atom_site_symmetry_multiplicity
  _atom_site_fract_x
  _atom_site_fract_y
  _atom_site_fract_z
  _atom_site_occupancy
  Ce  Ce1       1.0  0.0  0.62768  0.25  1.0000
  Ce  Ce2       1.0  0.0  0.37232  0.75  1.0000
  Ce  Ce3       1.0  0.5  0.12768000000000002  0.25  1.0000
  Ce  Ce4       1.0  0.5  0.87232  0.75  1.0000
  P   P1        1.0  0.0  0.24839999999999998  0.25  1.0000
  P   P2        1.0  0.0  0.7515999999999999  0.75  1.0000
  P   P3        1.0  0.5  0.7484  0.25  1.0000
  P   P4        1.0  0.5  0.25160000000000005  0.75  1.0000
  P   P5        1.0  0.8253  0.9926999999999999  0.20267  1.0000
  P   P6        1.0  0.17469999999999997  0.007300000000000084  0.7026700000000001  1.0000
  P   P7        1.0  0.17469999999999997  0.9926999999999999  0.29733  1.0000
  P   P8        1.0  0.8253  0.007300000000000084  0.7973300000000001  1.0000
  P   P9        1.0  0.3252999999999999  0.4926999999999999  0.20267  1.0000
  P   P10       1.0  0.6747  0.5073000000000001  0.7026700000000001  1.0000
  P   P11       1.0  0.6747  0.4926999999999999  0.29733  1.0000
  P   P12       1.0  0.3252999999999999  0.5073000000000001  0.7973300000000001  1.0000
  O   O1        1.0  0.6957  0.0244  0.2102  1.0000
  O   O2        1.0  0.3043  0.9756  0.7102  1.0000
  O   O3        1.0  0.3043  0.0244  0.2898  1.0000
  O   O4        1.0  0.6957  0.9756  0.7898000000000002  1.0000
  O   O5        1.0  0.19569999999999999  0.5244  0.2102  1.0000
  O   O6        1.0  0.8043  0.47559999999999997  0.7102  1.0000
  O   O7        1.0  0.8043  0.5244  0.2898  1.0000
  O   O8        1.0  0.19569999999999999  0.47559999999999997  0.7898000000000002  1.0000
  O   O9        1.0  0.8732  0.8506  0.2873000000000001  1.0000
  O   O10       1.0  0.12680000000000002  0.14939999999999998  0.7873000000000002  1.0000
  O   O11       1.0  0.12680000000000002  0.8506  0.21269999999999997  1.0000
  O   O12       1.0  0.8732  0.14939999999999998  0.7127  1.0000
  O   O13       1.0  0.3731999999999999  0.3506  0.2873000000000001  1.0000
  O   O14       1.0  0.6268  0.6494  0.7873000000000002  1.0000
  O   O15       1.0  0.6268  0.3506  0.21269999999999997  1.0000
  O   O16       1.0  0.3731999999999999  0.6494  0.7127  1.0000
  O   O17       1.0  0.8750999999999999  0.0  0.0  1.0000
  O   O18       1.0  0.12490000000000012  0.0  0.5  1.0000
  O   O19       1.0  0.37509999999999977  0.5  0.0  1.0000
  O   O20       1.0  0.6249000000000001  0.5  0.5  1.0000
  O   O21       1.0  0.0185  0.345  0.4175  1.0000
  O   O22       1.0  0.9815  0.655  0.9175000000000001  1.0000
  O   O23       1.0  0.9815  0.345  0.08250000000000002  1.0000
  O   O24       1.0  0.0185  0.655  0.5825000000000001  1.0000
  O   O25       1.0  0.5185  0.845  0.4175  1.0000
  O   O26       1.0  0.4815  0.15500000000000003  0.9175000000000001  1.0000
  O   O27       1.0  0.4815  0.845  0.08250000000000002  1.0000
  O   O28       1.0  0.5185  0.15500000000000003  0.5825000000000001  1.0000
  O   O29       1.0  0.8915  0.1381  0.2904000000000001  1.0000
  O   O30       1.0  0.10850000000000004  0.8618999999999999  0.7904000000000001  1.0000
  O   O31       1.0  0.10850000000000004  0.1381  0.20959999999999998  1.0000
  O   O32       1.0  0.8915  0.8618999999999999  0.7096000000000001  1.0000
  O   O33       1.0  0.3914999999999999  0.6381  0.2904000000000001  1.0000
  O   O34       1.0  0.6085  0.3619  0.7904000000000001  1.0000
  O   O35       1.0  0.6085  0.6381  0.20959999999999998  1.0000
  O   O36       1.0  0.3914999999999999  0.3619  0.7096000000000001  1.0000
