data_image0
_chemical_formula_structural       Nb48Se8Cl104O24
_chemical_formula_sum              "Nb48 Se8 Cl104 O24"
_cell_length_a       9.086
_cell_length_b       9.086
_cell_length_c       52.4
_cell_angle_alpha    90.0
_cell_angle_beta     90.0
_cell_angle_gamma    90.0

_space_group_name_H-M_alt    "P 1"
_space_group_IT_number       1

loop_
  _space_group_symop_operation_xyz
  'x, y, z'

loop_
  _atom_site_type_symbol
  _atom_site_label
  _atom_site_symmetry_multiplicity
  _atom_site_fract_x
  _atom_site_fract_y
  _atom_site_fract_z
  _atom_site_occupancy
  Nb  Nb1       1.0  0.5925200000000002  0.37253  0.8408  1.0000
  Nb  Nb2       1.0  0.62747  0.09252000000000016  0.09079999999999999  1.0000
  Nb  Nb3       1.0  0.90748  0.12747000000000003  0.3408  1.0000
  Nb  Nb4       1.0  0.87253  0.40747999999999984  0.5908  1.0000
  Nb  Nb5       1.0  0.5925200000000002  0.12747000000000003  0.4092  1.0000
  Nb  Nb6       1.0  0.87253  0.09252000000000016  0.6592  1.0000
  Nb  Nb7       1.0  0.90748  0.37253  0.9092  1.0000
  Nb  Nb8       1.0  0.62747  0.40747999999999984  0.15920000000000004  1.0000
  Nb  Nb9       1.0  0.09252000000000016  0.87253  0.3408  1.0000
  Nb  Nb10      1.0  0.12747000000000003  0.5925200000000002  0.5908  1.0000
  Nb  Nb11      1.0  0.40747999999999984  0.62747  0.8408  1.0000
  Nb  Nb12      1.0  0.37253  0.90748  0.09079999999999999  1.0000
  Nb  Nb13      1.0  0.09252000000000016  0.62747  0.9092  1.0000
  Nb  Nb14      1.0  0.37253  0.5925200000000002  0.15920000000000004  1.0000
  Nb  Nb15      1.0  0.40747999999999984  0.87253  0.4092  1.0000
  Nb  Nb16      1.0  0.12747000000000003  0.90748  0.6592  1.0000
  Nb  Nb17      1.0  0.58173  0.35703  0.78372  1.0000
  Nb  Nb18      1.0  0.64297  0.08172999999999986  0.03371999999999997  1.0000
  Nb  Nb19      1.0  0.91827  0.14296999999999999  0.28371999999999997  1.0000
  Nb  Nb20      1.0  0.85703  0.41827000000000003  0.53372  1.0000
  Nb  Nb21      1.0  0.58173  0.14296999999999999  0.46628  1.0000
  Nb  Nb22      1.0  0.85703  0.08172999999999986  0.7162799999999999  1.0000
  Nb  Nb23      1.0  0.91827  0.35703  0.96628  1.0000
  Nb  Nb24      1.0  0.64297  0.41827000000000003  0.21628000000000003  1.0000
  Nb  Nb25      1.0  0.08172999999999986  0.85703  0.28371999999999997  1.0000
  Nb  Nb26      1.0  0.14296999999999999  0.58173  0.53372  1.0000
  Nb  Nb27      1.0  0.41827000000000003  0.64297  0.78372  1.0000
  Nb  Nb28      1.0  0.35703  0.91827  0.03371999999999997  1.0000
  Nb  Nb29      1.0  0.08172999999999986  0.64297  0.96628  1.0000
  Nb  Nb30      1.0  0.35703  0.58173  0.21628000000000003  1.0000
  Nb  Nb31      1.0  0.41827000000000003  0.85703  0.46628  1.0000
  Nb  Nb32      1.0  0.14296999999999999  0.91827  0.7162799999999999  1.0000
  Nb  Nb33      1.0  0.19370000000000004  0.11748000000000001  0.31333  1.0000
  Nb  Nb34      1.0  0.8825200000000001  0.6937  0.56333  1.0000
  Nb  Nb35      1.0  0.30629999999999996  0.38251999999999997  0.81333  1.0000
  Nb  Nb36      1.0  0.61748  0.8063  0.06333000000000011  1.0000
  Nb  Nb37      1.0  0.19370000000000004  0.38251999999999997  0.93667  1.0000
  Nb  Nb38      1.0  0.61748  0.6937  0.18667  1.0000
  Nb  Nb39      1.0  0.30629999999999996  0.11748000000000001  0.43667  1.0000
  Nb  Nb40      1.0  0.8825200000000001  0.8063  0.68667  1.0000
  Nb  Nb41      1.0  0.6937  0.61748  0.81333  1.0000
  Nb  Nb42      1.0  0.38251999999999997  0.19370000000000004  0.06333000000000011  1.0000
  Nb  Nb43      1.0  0.8063  0.8825200000000001  0.31333  1.0000
  Nb  Nb44      1.0  0.11748000000000001  0.30629999999999996  0.56333  1.0000
  Nb  Nb45      1.0  0.6937  0.8825200000000001  0.43667  1.0000
  Nb  Nb46      1.0  0.11748000000000001  0.19370000000000004  0.68667  1.0000
  Nb  Nb47      1.0  0.8063  0.61748  0.93667  1.0000
  Nb  Nb48      1.0  0.38251999999999997  0.30629999999999996  0.18667  1.0000
  Se  Se1       1.0  0.5  0.5  0.90582  1.0000
  Se  Se2       1.0  0.5  0.0  0.15581999999999985  1.0000
  Se  Se3       1.0  0.0  0.0  0.40581999999999985  1.0000
  Se  Se4       1.0  0.0  0.5  0.6558199999999998  1.0000
  Se  Se5       1.0  0.5  0.0  0.34418000000000004  1.0000
  Se  Se6       1.0  0.0  0.0  0.59418  1.0000
  Se  Se7       1.0  0.0  0.5  0.8441800000000002  1.0000
  Se  Se8       1.0  0.5  0.5  0.09418000000000004  1.0000
  Cl  Cl1       1.0  0.3802  0.2044  0.84651  1.0000
  Cl  Cl2       1.0  0.7956  0.8802  0.09650999999999986  1.0000
  Cl  Cl3       1.0  0.1198  0.2956  0.3465099999999999  1.0000
  Cl  Cl4       1.0  0.7044  0.6198  0.5965099999999999  1.0000
  Cl  Cl5       1.0  0.3802  0.2956  0.40349  1.0000
  Cl  Cl6       1.0  0.7044  0.8802  0.65349  1.0000
  Cl  Cl7       1.0  0.1198  0.2044  0.90349  1.0000
  Cl  Cl8       1.0  0.7956  0.6198  0.15349000000000004  1.0000
  Cl  Cl9       1.0  0.8802  0.7044  0.3465099999999999  1.0000
  Cl  Cl10      1.0  0.2956  0.3802  0.5965099999999999  1.0000
  Cl  Cl11      1.0  0.6198  0.7956  0.84651  1.0000
  Cl  Cl12      1.0  0.2044  0.1198  0.09650999999999986  1.0000
  Cl  Cl13      1.0  0.8802  0.7956  0.90349  1.0000
  Cl  Cl14      1.0  0.2044  0.3802  0.15349000000000004  1.0000
  Cl  Cl15      1.0  0.6198  0.7044  0.40349  1.0000
  Cl  Cl16      1.0  0.2956  0.1198  0.65349  1.0000
  Cl  Cl17      1.0  0.1811  0.5209  0.77936  1.0000
  Cl  Cl18      1.0  0.47909999999999997  0.6811  0.029360000000000053  1.0000
  Cl  Cl19      1.0  0.31889999999999996  0.9791000000000001  0.27936000000000005  1.0000
  Cl  Cl20      1.0  0.02090000000000014  0.8189000000000001  0.52936  1.0000
  Cl  Cl21      1.0  0.1811  0.9791000000000001  0.47064  1.0000
  Cl  Cl22      1.0  0.02090000000000014  0.6811  0.7206400000000001  1.0000
  Cl  Cl23      1.0  0.31889999999999996  0.5209  0.97064  1.0000
  Cl  Cl24      1.0  0.47909999999999997  0.8189000000000001  0.22063999999999995  1.0000
  Cl  Cl25      1.0  0.6811  0.02090000000000014  0.27936000000000005  1.0000
  Cl  Cl26      1.0  0.9791000000000001  0.1811  0.52936  1.0000
  Cl  Cl27      1.0  0.8189000000000001  0.47909999999999997  0.77936  1.0000
  Cl  Cl28      1.0  0.5209  0.31889999999999996  0.029360000000000053  1.0000
  Cl  Cl29      1.0  0.6811  0.47909999999999997  0.97064  1.0000
  Cl  Cl30      1.0  0.5209  0.1811  0.22063999999999995  1.0000
  Cl  Cl31      1.0  0.8189000000000001  0.02090000000000014  0.47064  1.0000
  Cl  Cl32      1.0  0.9791000000000001  0.31889999999999996  0.7206400000000001  1.0000
  Cl  Cl33      1.0  0.3643  0.1966  0.78135  1.0000
  Cl  Cl34      1.0  0.8034  0.8643000000000001  0.03134999999999999  1.0000
  Cl  Cl35      1.0  0.1357  0.3034  0.28135  1.0000
  Cl  Cl36      1.0  0.6966  0.6356999999999999  0.53135  1.0000
  Cl  Cl37      1.0  0.3643  0.3034  0.46865  1.0000
  Cl  Cl38      1.0  0.6966  0.8643000000000001  0.71865  1.0000
  Cl  Cl39      1.0  0.1357  0.1966  0.9686500000000001  1.0000
  Cl  Cl40      1.0  0.8034  0.6356999999999999  0.21865  1.0000
  Cl  Cl41      1.0  0.8643000000000001  0.6966  0.28135  1.0000
  Cl  Cl42      1.0  0.3034  0.3643  0.53135  1.0000
  Cl  Cl43      1.0  0.6356999999999999  0.8034  0.78135  1.0000
  Cl  Cl44      1.0  0.1966  0.1357  0.03134999999999999  1.0000
  Cl  Cl45      1.0  0.8643000000000001  0.8034  0.9686500000000001  1.0000
  Cl  Cl46      1.0  0.1966  0.3643  0.21865  1.0000
  Cl  Cl47      1.0  0.6356999999999999  0.6966  0.46865  1.0000
  Cl  Cl48      1.0  0.3034  0.1357  0.71865  1.0000
  Cl  Cl49      1.0  0.3079  0.8203  0.81275  1.0000
  Cl  Cl50      1.0  0.17969999999999997  0.8079000000000001  0.06274999999999986  1.0000
  Cl  Cl51      1.0  0.19210000000000002  0.6797  0.3127499999999998  1.0000
  Cl  Cl52      1.0  0.32030000000000003  0.6920999999999999  0.5627499999999999  1.0000
  Cl  Cl53      1.0  0.3079  0.6797  0.43724999999999997  1.0000
  Cl  Cl54      1.0  0.32030000000000003  0.8079000000000001  0.6872499999999999  1.0000
  Cl  Cl55      1.0  0.19210000000000002  0.8203  0.93725  1.0000
  Cl  Cl56      1.0  0.17969999999999997  0.6920999999999999  0.18725000000000003  1.0000
  Cl  Cl57      1.0  0.8079000000000001  0.32030000000000003  0.3127499999999998  1.0000
  Cl  Cl58      1.0  0.6797  0.3079  0.5627499999999999  1.0000
  Cl  Cl59      1.0  0.6920999999999999  0.17969999999999997  0.81275  1.0000
  Cl  Cl60      1.0  0.8203  0.19210000000000002  0.06274999999999986  1.0000
  Cl  Cl61      1.0  0.8079000000000001  0.17969999999999997  0.93725  1.0000
  Cl  Cl62      1.0  0.8203  0.3079  0.18725000000000003  1.0000
  Cl  Cl63      1.0  0.6920999999999999  0.32030000000000003  0.43724999999999997  1.0000
  Cl  Cl64      1.0  0.6797  0.19210000000000002  0.6872499999999999  1.0000
  Cl  Cl65      1.0  0.5  0.5  0.74699  1.0000
  Cl  Cl66      1.0  0.5  0.0  0.9969900000000002  1.0000
  Cl  Cl67      1.0  0.0  0.0  0.24699000000000004  1.0000
  Cl  Cl68      1.0  0.0  0.5  0.49699000000000004  1.0000
  Cl  Cl69      1.0  0.5  0.0  0.50301  1.0000
  Cl  Cl70      1.0  0.0  0.0  0.75301  1.0000
  Cl  Cl71      1.0  0.0  0.5  0.003009999999999957  1.0000
  Cl  Cl72      1.0  0.5  0.5  0.25300999999999996  1.0000
  Cl  Cl73      1.0  0.0497  0.2671  0.8212100000000001  1.0000
  Cl  Cl74      1.0  0.7329  0.5497  0.07121000000000022  1.0000
  Cl  Cl75      1.0  0.4503  0.23290000000000002  0.3212100000000002  1.0000
  Cl  Cl76      1.0  0.7671  0.9503  0.5712100000000002  1.0000
  Cl  Cl77      1.0  0.0497  0.23290000000000002  0.4287899999999999  1.0000
  Cl  Cl78      1.0  0.7671  0.5497  0.6787899999999999  1.0000
  Cl  Cl79      1.0  0.4503  0.2671  0.9287899999999999  1.0000
  Cl  Cl80      1.0  0.7329  0.9503  0.1787899999999999  1.0000
  Cl  Cl81      1.0  0.5497  0.7671  0.3212100000000002  1.0000
  Cl  Cl82      1.0  0.23290000000000002  0.0497  0.5712100000000002  1.0000
  Cl  Cl83      1.0  0.9503  0.7329  0.8212100000000001  1.0000
  Cl  Cl84      1.0  0.2671  0.4503  0.07121000000000022  1.0000
  Cl  Cl85      1.0  0.5497  0.7329  0.9287899999999999  1.0000
  Cl  Cl86      1.0  0.2671  0.0497  0.1787899999999999  1.0000
  Cl  Cl87      1.0  0.9503  0.7671  0.4287899999999999  1.0000
  Cl  Cl88      1.0  0.23290000000000002  0.4503  0.6787899999999999  1.0000
  Cl  Cl89      1.0  0.25  0.7687  0.875  1.0000
  Cl  Cl90      1.0  0.23129999999999995  0.7500000000000001  0.125  1.0000
  Cl  Cl91      1.0  0.25  0.7313  0.375  1.0000
  Cl  Cl92      1.0  0.26869999999999994  0.7500000000000001  0.625  1.0000
  Cl  Cl93      1.0  0.7500000000000001  0.26869999999999994  0.375  1.0000
  Cl  Cl94      1.0  0.7313  0.25  0.625  1.0000
  Cl  Cl95      1.0  0.7500000000000001  0.23129999999999995  0.875  1.0000
  Cl  Cl96      1.0  0.7687  0.25  0.125  1.0000
  Cl  Cl97      1.0  0.17189999999999994  0.8281000000000001  0.0  1.0000
  Cl  Cl98      1.0  0.17189999999999994  0.6718999999999999  0.25  1.0000
  Cl  Cl99      1.0  0.32810000000000006  0.6718999999999999  0.5  1.0000
  Cl  Cl100     1.0  0.32810000000000006  0.8281000000000001  0.75  1.0000
  Cl  Cl101     1.0  0.6718999999999999  0.32810000000000006  0.5  1.0000
  Cl  Cl102     1.0  0.6718999999999999  0.17189999999999994  0.75  1.0000
  Cl  Cl103     1.0  0.8281000000000001  0.17189999999999994  0.0  1.0000
  Cl  Cl104     1.0  0.8281000000000001  0.32810000000000006  0.25  1.0000
  O   O1        1.0  0.5  0.5  0.8682  1.0000
  O   O2        1.0  0.5  0.0  0.11819999999999986  1.0000
  O   O3        1.0  0.0  0.0  0.36819999999999986  1.0000
  O   O4        1.0  0.0  0.5  0.6181999999999999  1.0000
  O   O5        1.0  0.5  0.0  0.38180000000000003  1.0000
  O   O6        1.0  0.0  0.0  0.6318000000000001  1.0000
  O   O7        1.0  0.0  0.5  0.8818  1.0000
  O   O8        1.0  0.5  0.5  0.13180000000000003  1.0000
  O   O9        1.0  0.22210000000000002  0.5162  0.8393  1.0000
  O   O10       1.0  0.4838  0.7221  0.08930000000000014  1.0000
  O   O11       1.0  0.2779  0.9838  0.33930000000000016  1.0000
  O   O12       1.0  0.016199999999999992  0.7779  0.5893000000000002  1.0000
  O   O13       1.0  0.22210000000000002  0.9838  0.4107  1.0000
  O   O14       1.0  0.016199999999999992  0.7221  0.6607000000000001  1.0000
  O   O15       1.0  0.2779  0.5162  0.9107  1.0000
  O   O16       1.0  0.4838  0.7779  0.16069999999999995  1.0000
  O   O17       1.0  0.7221  0.016199999999999992  0.33930000000000016  1.0000
  O   O18       1.0  0.9838  0.22210000000000002  0.5893000000000002  1.0000
  O   O19       1.0  0.7779  0.4838  0.8393  1.0000
  O   O20       1.0  0.5162  0.2779  0.08930000000000014  1.0000
  O   O21       1.0  0.7221  0.4838  0.9107  1.0000
  O   O22       1.0  0.5162  0.22210000000000002  0.16069999999999995  1.0000
  O   O23       1.0  0.7779  0.016199999999999992  0.4107  1.0000
  O   O24       1.0  0.9838  0.2779  0.6607000000000001  1.0000
