data_image0
_chemical_formula_structural       Ba4Cd4P16O48
_chemical_formula_sum              "Ba4 Cd4 P16 O48"
_cell_length_a       14.94
_cell_length_b       9.192
_cell_length_c       7.219
_cell_angle_alpha    90.0
_cell_angle_beta     90.79000000000002
_cell_angle_gamma    90.0

_space_group_name_H-M_alt    "P 1"
_space_group_IT_number       1

loop_
  _space_group_symop_operation_xyz
  'x, y, z'

loop_
  _atom_site_type_symbol
  _atom_site_label
  _atom_site_symmetry_multiplicity
  _atom_site_fract_x
  _atom_site_fract_y
  _atom_site_fract_z
  _atom_site_occupancy
  Ba  Ba1       1.0  0.3667  0.10787  0.01685  1.0000
  Ba  Ba2       1.0  0.8667  0.39213  0.51685  1.0000
  Ba  Ba3       1.0  0.6333  0.8921300000000001  0.98315  1.0000
  Ba  Ba4       1.0  0.13329999999999997  0.60787  0.48315  1.0000
  Cd  Cd1       1.0  0.15718  0.7669  0.00211  1.0000
  Cd  Cd2       1.0  0.65718  0.7331  0.50211  1.0000
  Cd  Cd3       1.0  0.84282  0.23309999999999995  0.99789  1.0000
  Cd  Cd4       1.0  0.34282  0.26690000000000014  0.49789  1.0000
  P   P1        1.0  0.55915  0.16427  0.37133  1.0000
  P   P2        1.0  0.059150000000000036  0.33573  0.8713299999999999  1.0000
  P   P3        1.0  0.44084999999999996  0.83573  0.6286700000000001  1.0000
  P   P4        1.0  0.94085  0.66427  0.12867  1.0000
  P   P5        1.0  0.04118  0.24853000000000003  0.26176  1.0000
  P   P6        1.0  0.5411799999999999  0.25146999999999997  0.76176  1.0000
  P   P7        1.0  0.95882  0.75147  0.73824  1.0000
  P   P8        1.0  0.45882  0.74853  0.23824  1.0000
  P   P9        1.0  0.67783  0.48245000000000005  0.86458  1.0000
  P   P10       1.0  0.17783000000000015  0.017549999999999955  0.36458000000000007  1.0000
  P   P11       1.0  0.3221699999999999  0.51755  0.13541999999999998  1.0000
  P   P12       1.0  0.82217  0.9824500000000002  0.63542  1.0000
  P   P13       1.0  0.67669  0.40058  0.26028  1.0000
  P   P14       1.0  0.17669  0.09942000000000001  0.7602800000000001  1.0000
  P   P15       1.0  0.32331  0.5994200000000001  0.7397199999999999  1.0000
  P   P16       1.0  0.8233099999999999  0.9005799999999999  0.23972  1.0000
  O   O1        1.0  0.5841  0.3194  0.2843  1.0000
  O   O2        1.0  0.08409999999999983  0.18059999999999998  0.7843  1.0000
  O   O3        1.0  0.41590000000000005  0.6806  0.7157  1.0000
  O   O4        1.0  0.9158999999999999  0.8194  0.2157  1.0000
  O   O5        1.0  0.5882  0.1888  0.5834  1.0000
  O   O6        1.0  0.08820000000000006  0.31120000000000003  0.08340000000000014  1.0000
  O   O7        1.0  0.41180000000000005  0.8112  0.41659999999999997  1.0000
  O   O8        1.0  0.9117999999999999  0.6888  0.9166  1.0000
  O   O9        1.0  0.0857  0.0927  0.2858  1.0000
  O   O10       1.0  0.5857  0.4073  0.7858  1.0000
  O   O11       1.0  0.9143  0.9072999999999999  0.7142  1.0000
  O   O12       1.0  0.4143  0.5927  0.2142  1.0000
  O   O13       1.0  0.6556  0.4943  0.0809  1.0000
  O   O14       1.0  0.15559999999999996  0.005699999999999983  0.5809  1.0000
  O   O15       1.0  0.34440000000000004  0.5057  0.9191  1.0000
  O   O16       1.0  0.8444  0.9943  0.41910000000000003  1.0000
  O   O17       1.0  0.4599  0.1553  0.3513  1.0000
  O   O18       1.0  0.9598999999999999  0.3447  0.8513  1.0000
  O   O19       1.0  0.5401  0.8447  0.6487  1.0000
  O   O20       1.0  0.040100000000000025  0.6553  0.1487  1.0000
  O   O21       1.0  0.614  0.0456  0.2999  1.0000
  O   O22       1.0  0.11399999999999988  0.4544  0.7999  1.0000
  O   O23       1.0  0.386  0.9543999999999999  0.7001  1.0000
  O   O24       1.0  0.8859999999999999  0.5456  0.2001  1.0000
  O   O25       1.0  0.944  0.2214  0.2301  1.0000
  O   O26       1.0  0.4439999999999999  0.27859999999999996  0.7301  1.0000
  O   O27       1.0  0.05600000000000005  0.7786  0.7699  1.0000
  O   O28       1.0  0.5559999999999999  0.7214  0.26990000000000003  1.0000
  O   O29       1.0  0.5631  0.155  0.92  1.0000
  O   O30       1.0  0.06309999999999993  0.345  0.41999999999999993  1.0000
  O   O31       1.0  0.43689999999999996  0.845  0.07999999999999996  1.0000
  O   O32       1.0  0.9369  0.655  0.58  1.0000
  O   O33       1.0  0.6711  0.6347  0.7972  1.0000
  O   O34       1.0  0.17110000000000003  0.8653  0.29720000000000013  1.0000
  O   O35       1.0  0.3288999999999999  0.36529999999999996  0.20279999999999998  1.0000
  O   O36       1.0  0.8289  0.13470000000000004  0.7028  1.0000
  O   O37       1.0  0.2542  0.1071  0.3287  1.0000
  O   O38       1.0  0.7542  0.3929  0.8287  1.0000
  O   O39       1.0  0.7457999999999999  0.8928999999999999  0.6713  1.0000
  O   O40       1.0  0.24580000000000002  0.6071  0.1713  1.0000
  O   O41       1.0  0.7404  0.2946  0.2318  1.0000
  O   O42       1.0  0.24039999999999992  0.20540000000000003  0.7318  1.0000
  O   O43       1.0  0.25960000000000005  0.7054  0.7682000000000001  1.0000
  O   O44       1.0  0.7595999999999999  0.7946  0.2682  1.0000
  O   O45       1.0  0.692  0.4992  0.4205  1.0000
  O   O46       1.0  0.19199999999999992  0.0008000000000000229  0.9205  1.0000
  O   O47       1.0  0.30800000000000005  0.5008  0.5795  1.0000
  O   O48       1.0  0.8079999999999999  0.9992  0.07950000000000002  1.0000
