data_image0
_chemical_formula_structural       Ge126O306
_chemical_formula_sum              "Ge126 O306"
_cell_length_a       28.794
_cell_length_b       28.793999999999997
_cell_length_c       20.603
_cell_angle_alpha    90.0
_cell_angle_beta     90.0
_cell_angle_gamma    119.99999999999999

_space_group_name_H-M_alt    "P 1"
_space_group_IT_number       1

loop_
  _space_group_symop_operation_xyz
  'x, y, z'

loop_
  _atom_site_type_symbol
  _atom_site_label
  _atom_site_symmetry_multiplicity
  _atom_site_fract_x
  _atom_site_fract_y
  _atom_site_fract_z
  _atom_site_occupancy
  Ge  Ge1       1.0  0.32589  0.14236  0.09572  1.0000
  Ge  Ge2       1.0  0.85764  0.18353000000000003  0.09572  1.0000
  Ge  Ge3       1.0  0.8164700000000001  0.67411  0.09572  1.0000
  Ge  Ge4       1.0  0.6741100000000001  0.85764  0.59572  1.0000
  Ge  Ge5       1.0  0.14236  0.81647  0.59572  1.0000
  Ge  Ge6       1.0  0.18353  0.32588999999999996  0.59572  1.0000
  Ge  Ge7       1.0  0.85764  0.67411  0.59572  1.0000
  Ge  Ge8       1.0  0.8164700000000001  0.14236  0.59572  1.0000
  Ge  Ge9       1.0  0.32589  0.18353000000000003  0.59572  1.0000
  Ge  Ge10      1.0  0.14235999999999996  0.32588999999999996  0.09572  1.0000
  Ge  Ge11      1.0  0.18353000000000003  0.85764  0.09572  1.0000
  Ge  Ge12      1.0  0.6741100000000001  0.81647  0.09572  1.0000
  Ge  Ge13      1.0  0.27135  0.20827  0.13111  1.0000
  Ge  Ge14      1.0  0.7917300000000002  0.06307999999999997  0.13111  1.0000
  Ge  Ge15      1.0  0.9369200000000001  0.72865  0.13111  1.0000
  Ge  Ge16      1.0  0.72865  0.79173  0.6311100000000001  1.0000
  Ge  Ge17      1.0  0.20827000000000004  0.93692  0.6311100000000001  1.0000
  Ge  Ge18      1.0  0.06307999999999997  0.27135  0.6311100000000001  1.0000
  Ge  Ge19      1.0  0.7917300000000002  0.72865  0.6311100000000001  1.0000
  Ge  Ge20      1.0  0.9369200000000001  0.20827  0.6311100000000001  1.0000
  Ge  Ge21      1.0  0.27135  0.06307999999999997  0.6311100000000001  1.0000
  Ge  Ge22      1.0  0.20827000000000004  0.27135  0.13111  1.0000
  Ge  Ge23      1.0  0.06308000000000001  0.79173  0.13111  1.0000
  Ge  Ge24      1.0  0.72865  0.93692  0.13111  1.0000
  Ge  Ge25      1.0  0.3900000000000001  0.26538  0.0972  1.0000
  Ge  Ge26      1.0  0.73462  0.12462000000000006  0.0972  1.0000
  Ge  Ge27      1.0  0.8753799999999999  0.6099999999999999  0.0972  1.0000
  Ge  Ge28      1.0  0.61  0.73462  0.5972000000000001  1.0000
  Ge  Ge29      1.0  0.26538  0.8753799999999999  0.5972000000000001  1.0000
  Ge  Ge30      1.0  0.12462000000000008  0.39000000000000007  0.5972000000000001  1.0000
  Ge  Ge31      1.0  0.73462  0.6099999999999999  0.5972000000000001  1.0000
  Ge  Ge32      1.0  0.8753799999999999  0.26538  0.5972000000000001  1.0000
  Ge  Ge33      1.0  0.3900000000000001  0.12462000000000006  0.5972000000000001  1.0000
  Ge  Ge34      1.0  0.26538  0.39000000000000007  0.0972  1.0000
  Ge  Ge35      1.0  0.12462000000000005  0.73462  0.0972  1.0000
  Ge  Ge36      1.0  0.61  0.8753799999999999  0.0972  1.0000
  Ge  Ge37      1.0  0.4154200000000001  0.23141  0.23116000000000003  1.0000
  Ge  Ge38      1.0  0.76859  0.18401000000000006  0.23116000000000003  1.0000
  Ge  Ge39      1.0  0.81599  0.5845799999999999  0.23116000000000003  1.0000
  Ge  Ge40      1.0  0.5845799999999999  0.76859  0.73116  1.0000
  Ge  Ge41      1.0  0.23141  0.81599  0.73116  1.0000
  Ge  Ge42      1.0  0.18401000000000006  0.41542000000000007  0.73116  1.0000
  Ge  Ge43      1.0  0.76859  0.5845799999999999  0.73116  1.0000
  Ge  Ge44      1.0  0.81599  0.23141  0.73116  1.0000
  Ge  Ge45      1.0  0.4154200000000001  0.18401000000000006  0.73116  1.0000
  Ge  Ge46      1.0  0.23141  0.41542000000000007  0.23116000000000003  1.0000
  Ge  Ge47      1.0  0.18401000000000006  0.76859  0.23116000000000003  1.0000
  Ge  Ge48      1.0  0.5845799999999999  0.81599  0.23116000000000003  1.0000
  Ge  Ge49      1.0  0.3007800000000001  0.17279  0.25938  1.0000
  Ge  Ge50      1.0  0.8272100000000001  0.12799000000000005  0.25938  1.0000
  Ge  Ge51      1.0  0.87201  0.69922  0.25938  1.0000
  Ge  Ge52      1.0  0.6992200000000001  0.82721  0.75938  1.0000
  Ge  Ge53      1.0  0.17279000000000003  0.87201  0.75938  1.0000
  Ge  Ge54      1.0  0.12799000000000005  0.30078000000000005  0.75938  1.0000
  Ge  Ge55      1.0  0.8272100000000001  0.69922  0.75938  1.0000
  Ge  Ge56      1.0  0.87201  0.17279  0.75938  1.0000
  Ge  Ge57      1.0  0.3007800000000001  0.12799000000000005  0.75938  1.0000
  Ge  Ge58      1.0  0.17279000000000003  0.30078000000000005  0.25938  1.0000
  Ge  Ge59      1.0  0.12799000000000008  0.82721  0.25938  1.0000
  Ge  Ge60      1.0  0.6992200000000001  0.87201  0.25938  1.0000
  Ge  Ge61      1.0  0.28599  0.06381  0.21342  1.0000
  Ge  Ge62      1.0  0.9361900000000001  0.22218  0.21342  1.0000
  Ge  Ge63      1.0  0.7778200000000001  0.71401  0.21342  1.0000
  Ge  Ge64      1.0  0.71401  0.93619  0.7134199999999999  1.0000
  Ge  Ge65      1.0  0.06381000000000003  0.77782  0.7134199999999999  1.0000
  Ge  Ge66      1.0  0.22218000000000004  0.28599  0.7134199999999999  1.0000
  Ge  Ge67      1.0  0.9361900000000001  0.71401  0.7134199999999999  1.0000
  Ge  Ge68      1.0  0.7778200000000001  0.06381  0.7134199999999999  1.0000
  Ge  Ge69      1.0  0.28599  0.22218  0.7134199999999999  1.0000
  Ge  Ge70      1.0  0.06381  0.28599  0.21342  1.0000
  Ge  Ge71      1.0  0.22218000000000004  0.93619  0.21342  1.0000
  Ge  Ge72      1.0  0.71401  0.77782  0.21342  1.0000
  Ge  Ge73      1.0  0.40521000000000007  0.12431  0.18191000000000002  1.0000
  Ge  Ge74      1.0  0.8756900000000001  0.28090000000000004  0.18191000000000002  1.0000
  Ge  Ge75      1.0  0.7191000000000001  0.5947899999999999  0.18191000000000002  1.0000
  Ge  Ge76      1.0  0.5947899999999999  0.87569  0.6819100000000001  1.0000
  Ge  Ge77      1.0  0.12431000000000003  0.7191  0.6819100000000001  1.0000
  Ge  Ge78      1.0  0.2809000000000001  0.40521000000000007  0.6819100000000001  1.0000
  Ge  Ge79      1.0  0.8756900000000001  0.5947899999999999  0.6819100000000001  1.0000
  Ge  Ge80      1.0  0.7191000000000001  0.12431  0.6819100000000001  1.0000
  Ge  Ge81      1.0  0.40521000000000007  0.28090000000000004  0.6819100000000001  1.0000
  Ge  Ge82      1.0  0.12431000000000002  0.40521000000000007  0.18191000000000002  1.0000
  Ge  Ge83      1.0  0.2809000000000001  0.87569  0.18191000000000002  1.0000
  Ge  Ge84      1.0  0.5947899999999999  0.7191  0.18191000000000002  1.0000
  Ge  Ge85      1.0  0.46375  0.06055  0.13502  1.0000
  Ge  Ge86      1.0  0.9394500000000001  0.4032  0.13502  1.0000
  Ge  Ge87      1.0  0.5968  0.53625  0.13502  1.0000
  Ge  Ge88      1.0  0.53625  0.93945  0.6350200000000001  1.0000
  Ge  Ge89      1.0  0.06055000000000001  0.5968  0.6350200000000001  1.0000
  Ge  Ge90      1.0  0.40320000000000006  0.46375  0.6350200000000001  1.0000
  Ge  Ge91      1.0  0.9394500000000001  0.53625  0.6350200000000001  1.0000
  Ge  Ge92      1.0  0.5968  0.06055  0.6350200000000001  1.0000
  Ge  Ge93      1.0  0.46375  0.4032  0.6350200000000001  1.0000
  Ge  Ge94      1.0  0.06055  0.46375  0.13502  1.0000
  Ge  Ge95      1.0  0.40320000000000006  0.93945  0.13502  1.0000
  Ge  Ge96      1.0  0.53625  0.5968  0.13502  1.0000
  Ge  Ge97      1.0  0.51158  0.05822  0.0008  1.0000
  Ge  Ge98      1.0  0.9417800000000001  0.45336000000000004  0.0008  1.0000
  Ge  Ge99      1.0  0.5466400000000001  0.48841999999999997  0.0008  1.0000
  Ge  Ge100     1.0  0.48842  0.94178  0.5008000000000001  1.0000
  Ge  Ge101     1.0  0.05821999999999999  0.54664  0.5008000000000001  1.0000
  Ge  Ge102     1.0  0.45336000000000004  0.51158  0.5008000000000001  1.0000
  Ge  Ge103     1.0  0.9417800000000001  0.48841999999999997  0.5008000000000001  1.0000
  Ge  Ge104     1.0  0.5466400000000001  0.05822  0.5008000000000001  1.0000
  Ge  Ge105     1.0  0.51158  0.45336000000000004  0.5008000000000001  1.0000
  Ge  Ge106     1.0  0.05822000000000001  0.51158  0.0008  1.0000
  Ge  Ge107     1.0  0.45336000000000004  0.94178  0.0008  1.0000
  Ge  Ge108     1.0  0.48842  0.54664  0.0008  1.0000
  Ge  Ge109     1.0  0.61414  0.06111  0.049100000000000005  1.0000
  Ge  Ge110     1.0  0.9388900000000001  0.55303  0.049100000000000005  1.0000
  Ge  Ge111     1.0  0.44697000000000003  0.38586  0.049100000000000005  1.0000
  Ge  Ge112     1.0  0.38586  0.93889  0.5491000000000001  1.0000
  Ge  Ge113     1.0  0.06110999999999999  0.44697  0.5491000000000001  1.0000
  Ge  Ge114     1.0  0.55303  0.61414  0.5491000000000001  1.0000
  Ge  Ge115     1.0  0.9388900000000001  0.38586  0.5491000000000001  1.0000
  Ge  Ge116     1.0  0.44697000000000003  0.06111  0.5491000000000001  1.0000
  Ge  Ge117     1.0  0.61414  0.55303  0.5491000000000001  1.0000
  Ge  Ge118     1.0  0.06110999999999999  0.61414  0.049100000000000005  1.0000
  Ge  Ge119     1.0  0.55303  0.93889  0.049100000000000005  1.0000
  Ge  Ge120     1.0  0.38586  0.44697  0.049100000000000005  1.0000
  Ge  Ge121     1.0  0.52619  0.0  0.15067  1.0000
  Ge  Ge122     1.0  0.0  0.52619  0.15067  1.0000
  Ge  Ge123     1.0  0.47380999999999995  0.47380999999999995  0.15067  1.0000
  Ge  Ge124     1.0  0.47380999999999995  0.0  0.6506700000000001  1.0000
  Ge  Ge125     1.0  5.402401223233805e-18  0.47380999999999995  0.6506700000000001  1.0000
  Ge  Ge126     1.0  0.52619  0.52619  0.6506700000000001  1.0000
  O   O1        1.0  0.31230000000000013  0.1118  0.016200000000000003  1.0000
  O   O2        1.0  0.8882000000000001  0.20050000000000007  0.016200000000000003  1.0000
  O   O3        1.0  0.7995  0.6877  0.016200000000000003  1.0000
  O   O4        1.0  0.6877000000000001  0.8881999999999999  0.5162  1.0000
  O   O5        1.0  0.11180000000000002  0.7994999999999999  0.5162  1.0000
  O   O6        1.0  0.2005000000000001  0.3123000000000001  0.5162  1.0000
  O   O7        1.0  0.8882000000000001  0.6877  0.5162  1.0000
  O   O8        1.0  0.7995  0.1118  0.5162  1.0000
  O   O9        1.0  0.31230000000000013  0.20050000000000007  0.5162  1.0000
  O   O10       1.0  0.11180000000000001  0.3123000000000001  0.016200000000000003  1.0000
  O   O11       1.0  0.20050000000000004  0.8881999999999999  0.016200000000000003  1.0000
  O   O12       1.0  0.6877000000000001  0.7994999999999999  0.016200000000000003  1.0000
  O   O13       1.0  0.3432  0.1802  0.16930000000000003  1.0000
  O   O14       1.0  0.8198  0.163  0.16930000000000003  1.0000
  O   O15       1.0  0.837  0.6568  0.16930000000000003  1.0000
  O   O16       1.0  0.6568  0.8198000000000001  0.6693  1.0000
  O   O17       1.0  0.18020000000000005  0.8370000000000001  0.6693  1.0000
  O   O18       1.0  0.163  0.3432  0.6693  1.0000
  O   O19       1.0  0.8198  0.6568  0.6693  1.0000
  O   O20       1.0  0.837  0.1802  0.6693  1.0000
  O   O21       1.0  0.3432  0.163  0.6693  1.0000
  O   O22       1.0  0.1802  0.3432  0.16930000000000003  1.0000
  O   O23       1.0  0.16300000000000003  0.8198000000000001  0.16930000000000003  1.0000
  O   O24       1.0  0.6568000000000002  0.8370000000000001  0.16930000000000003  1.0000
  O   O25       1.0  0.2682  0.1562  0.0874  1.0000
  O   O26       1.0  0.8438000000000001  0.11199999999999999  0.0874  1.0000
  O   O27       1.0  0.8880000000000001  0.7318000000000001  0.0874  1.0000
  O   O28       1.0  0.7318  0.8438  0.5874000000000001  1.0000
  O   O29       1.0  0.1562  0.888  0.5874000000000001  1.0000
  O   O30       1.0  0.112  0.2682  0.5874000000000001  1.0000
  O   O31       1.0  0.8438000000000001  0.7318000000000001  0.5874000000000001  1.0000
  O   O32       1.0  0.8880000000000001  0.1562  0.5874000000000001  1.0000
  O   O33       1.0  0.2682  0.11199999999999999  0.5874000000000001  1.0000
  O   O34       1.0  0.1562  0.2682  0.0874  1.0000
  O   O35       1.0  0.11200000000000002  0.8438  0.0874  1.0000
  O   O36       1.0  0.7318  0.888  0.0874  1.0000
  O   O37       1.0  0.3739  0.207  0.059500000000000004  1.0000
  O   O38       1.0  0.793  0.16690000000000002  0.059500000000000004  1.0000
  O   O39       1.0  0.8331  0.6261  0.059500000000000004  1.0000
  O   O40       1.0  0.6261  0.7929999999999999  0.5595  1.0000
  O   O41       1.0  0.20700000000000005  0.8331000000000001  0.5595  1.0000
  O   O42       1.0  0.16690000000000002  0.3739  0.5595  1.0000
  O   O43       1.0  0.793  0.6261  0.5595  1.0000
  O   O44       1.0  0.8331  0.207  0.5595  1.0000
  O   O45       1.0  0.3739  0.16690000000000002  0.5595  1.0000
  O   O46       1.0  0.207  0.3739  0.059500000000000004  1.0000
  O   O47       1.0  0.1669  0.7929999999999999  0.059500000000000004  1.0000
  O   O48       1.0  0.6261000000000001  0.8331000000000001  0.059500000000000004  1.0000
  O   O49       1.0  0.3864  0.1246  0.105  1.0000
  O   O50       1.0  0.8754000000000001  0.26180000000000003  0.105  1.0000
  O   O51       1.0  0.7382  0.6135999999999999  0.105  1.0000
  O   O52       1.0  0.6135999999999999  0.8754  0.605  1.0000
  O   O53       1.0  0.12460000000000002  0.7382  0.605  1.0000
  O   O54       1.0  0.26180000000000003  0.3864  0.605  1.0000
  O   O55       1.0  0.8754000000000001  0.6135999999999999  0.605  1.0000
  O   O56       1.0  0.7382  0.1246  0.605  1.0000
  O   O57       1.0  0.3864  0.26180000000000003  0.605  1.0000
  O   O58       1.0  0.12460000000000002  0.3864  0.105  1.0000
  O   O59       1.0  0.26180000000000003  0.8754  0.105  1.0000
  O   O60       1.0  0.6135999999999999  0.7382  0.105  1.0000
  O   O61       1.0  0.2797  0.0745  0.1344  1.0000
  O   O62       1.0  0.9255  0.2052  0.1344  1.0000
  O   O63       1.0  0.7948000000000001  0.7203  0.1344  1.0000
  O   O64       1.0  0.7202999999999999  0.9255  0.6344  1.0000
  O   O65       1.0  0.07449999999999996  0.7947999999999998  0.6344  1.0000
  O   O66       1.0  0.20520000000000002  0.2797  0.6344  1.0000
  O   O67       1.0  0.9255000000000002  0.7203  0.6344  1.0000
  O   O68       1.0  0.7948  0.0745  0.6344  1.0000
  O   O69       1.0  0.2797  0.2052  0.6344  1.0000
  O   O70       1.0  0.07450000000000001  0.2797  0.1344  1.0000
  O   O71       1.0  0.20520000000000002  0.9255  0.1344  1.0000
  O   O72       1.0  0.7202999999999999  0.7947999999999998  0.1344  1.0000
  O   O73       1.0  0.22080000000000005  0.22079999999999997  0.10920000000000003  1.0000
  O   O74       1.0  0.7792  5.551115123125783e-17  0.10920000000000003  1.0000
  O   O75       1.0  0.0  0.7792  0.10920000000000003  1.0000
  O   O76       1.0  0.7792  0.7792  0.6092  1.0000
  O   O77       1.0  0.2208  0.0  0.6092  1.0000
  O   O78       1.0  5.956473689562225e-17  0.22080000000000002  0.6092  1.0000
  O   O79       1.0  0.263  0.1941  0.21570000000000003  1.0000
  O   O80       1.0  0.8059000000000002  0.06890000000000002  0.21570000000000003  1.0000
  O   O81       1.0  0.9311000000000001  0.737  0.21570000000000003  1.0000
  O   O82       1.0  0.737  0.8059000000000001  0.7157  1.0000
  O   O83       1.0  0.19410000000000002  0.9311  0.7157  1.0000
  O   O84       1.0  0.06890000000000002  0.263  0.7157  1.0000
  O   O85       1.0  0.8059000000000002  0.737  0.7157  1.0000
  O   O86       1.0  0.9311000000000001  0.1941  0.7157  1.0000
  O   O87       1.0  0.263  0.06890000000000002  0.7157  1.0000
  O   O88       1.0  0.19410000000000002  0.263  0.21570000000000003  1.0000
  O   O89       1.0  0.0689  0.8059000000000001  0.21570000000000003  1.0000
  O   O90       1.0  0.737  0.9311  0.21570000000000003  1.0000
  O   O91       1.0  0.3306  0.2693  0.12250000000000003  1.0000
  O   O92       1.0  0.7307  0.061300000000000014  0.12250000000000003  1.0000
  O   O93       1.0  0.9387  0.6694  0.12250000000000003  1.0000
  O   O94       1.0  0.6694  0.7307  0.6225  1.0000
  O   O95       1.0  0.26930000000000004  0.9387000000000001  0.6225  1.0000
  O   O96       1.0  0.06130000000000003  0.3306  0.6225  1.0000
  O   O97       1.0  0.7307  0.6694  0.6225  1.0000
  O   O98       1.0  0.9387  0.2693  0.6225  1.0000
  O   O99       1.0  0.3306  0.061300000000000014  0.6225  1.0000
  O   O100      1.0  0.2693  0.3306  0.12250000000000003  1.0000
  O   O101      1.0  0.06130000000000001  0.7307  0.12250000000000003  1.0000
  O   O102      1.0  0.6694000000000001  0.9387000000000001  0.12250000000000003  1.0000
  O   O103      1.0  0.427  0.3211  0.0393  1.0000
  O   O104      1.0  0.6789000000000001  0.1059  0.0393  1.0000
  O   O105      1.0  0.8941  0.573  0.0393  1.0000
  O   O106      1.0  0.5729999999999998  0.6789  0.5393  1.0000
  O   O107      1.0  0.3211  0.8941  0.5393  1.0000
  O   O108      1.0  0.10589999999999998  0.42699999999999994  0.5393  1.0000
  O   O109      1.0  0.6789000000000001  0.573  0.5393  1.0000
  O   O110      1.0  0.8941  0.3211  0.5393  1.0000
  O   O111      1.0  0.427  0.1059  0.5393  1.0000
  O   O112      1.0  0.3211  0.42699999999999994  0.0393  1.0000
  O   O113      1.0  0.10589999999999994  0.6789  0.0393  1.0000
  O   O114      1.0  0.573  0.8941  0.0393  1.0000
  O   O115      1.0  0.4311  0.2779  0.1607  1.0000
  O   O116      1.0  0.7221000000000001  0.1532  0.1607  1.0000
  O   O117      1.0  0.8468  0.5689  0.1607  1.0000
  O   O118      1.0  0.5689  0.7221  0.6607000000000001  1.0000
  O   O119      1.0  0.27790000000000004  0.8468000000000001  0.6607000000000001  1.0000
  O   O120      1.0  0.1532  0.4311  0.6607000000000001  1.0000
  O   O121      1.0  0.7221000000000001  0.5689  0.6607000000000001  1.0000
  O   O122      1.0  0.8468  0.2779  0.6607000000000001  1.0000
  O   O123      1.0  0.4311  0.1532  0.6607000000000001  1.0000
  O   O124      1.0  0.2779  0.4311  0.1607  1.0000
  O   O125      1.0  0.1532  0.7221  0.1607  1.0000
  O   O126      1.0  0.5689  0.8468000000000001  0.1607  1.0000
  O   O127      1.0  0.4655  0.2743  0.282  1.0000
  O   O128      1.0  0.7257000000000001  0.19120000000000004  0.282  1.0000
  O   O129      1.0  0.8088  0.5345  0.282  1.0000
  O   O130      1.0  0.5345000000000001  0.7257000000000001  0.782  1.0000
  O   O131      1.0  0.2743  0.8088  0.782  1.0000
  O   O132      1.0  0.19120000000000004  0.4655  0.782  1.0000
  O   O133      1.0  0.7257000000000001  0.5345  0.782  1.0000
  O   O134      1.0  0.8088  0.2743  0.782  1.0000
  O   O135      1.0  0.4655  0.19120000000000004  0.782  1.0000
  O   O136      1.0  0.2743  0.4655  0.282  1.0000
  O   O137      1.0  0.19120000000000012  0.7257000000000001  0.282  1.0000
  O   O138      1.0  0.5345  0.8088  0.282  1.0000
  O   O139      1.0  0.3653  0.21839999999999998  0.28300000000000003  1.0000
  O   O140      1.0  0.7816000000000002  0.14690000000000003  0.28300000000000003  1.0000
  O   O141      1.0  0.8531  0.6347  0.28300000000000003  1.0000
  O   O142      1.0  0.6347000000000002  0.7816000000000001  0.783  1.0000
  O   O143      1.0  0.2184  0.8531  0.783  1.0000
  O   O144      1.0  0.14690000000000003  0.3653  0.783  1.0000
  O   O145      1.0  0.7816000000000002  0.6347  0.783  1.0000
  O   O146      1.0  0.8531  0.21839999999999998  0.783  1.0000
  O   O147      1.0  0.3653  0.14690000000000003  0.783  1.0000
  O   O148      1.0  0.2184  0.3653  0.28300000000000003  1.0000
  O   O149      1.0  0.14690000000000003  0.7816000000000001  0.28300000000000003  1.0000
  O   O150      1.0  0.6347000000000002  0.8531  0.28300000000000003  1.0000
  O   O151      1.0  0.4386000000000001  0.1845  0.2234  1.0000
  O   O152      1.0  0.8155  0.25410000000000005  0.2234  1.0000
  O   O153      1.0  0.7459000000000001  0.5613999999999999  0.2234  1.0000
  O   O154      1.0  0.5614  0.8155  0.7234  1.0000
  O   O155      1.0  0.1845  0.7459  0.7234  1.0000
  O   O156      1.0  0.25410000000000005  0.43860000000000005  0.7234  1.0000
  O   O157      1.0  0.8155  0.5613999999999999  0.7234  1.0000
  O   O158      1.0  0.7459000000000001  0.1845  0.7234  1.0000
  O   O159      1.0  0.4386000000000001  0.25410000000000005  0.7234  1.0000
  O   O160      1.0  0.1845  0.43860000000000005  0.2234  1.0000
  O   O161      1.0  0.25410000000000005  0.8155  0.2234  1.0000
  O   O162      1.0  0.5614  0.7459  0.2234  1.0000
  O   O163      1.0  0.2742  0.17489999999999997  0.3363000000000001  1.0000
  O   O164      1.0  0.8251000000000001  0.09930000000000003  0.3363000000000001  1.0000
  O   O165      1.0  0.9007  0.7258  0.3363000000000001  1.0000
  O   O166      1.0  0.7258  0.8251000000000001  0.8363  1.0000
  O   O167      1.0  0.1749  0.9007  0.8363  1.0000
  O   O168      1.0  0.09930000000000004  0.2742  0.8363  1.0000
  O   O169      1.0  0.8251000000000001  0.7258  0.8363  1.0000
  O   O170      1.0  0.9007  0.17489999999999997  0.8363  1.0000
  O   O171      1.0  0.2742  0.09930000000000003  0.8363  1.0000
  O   O172      1.0  0.1749  0.2742  0.3363000000000001  1.0000
  O   O173      1.0  0.0993  0.8251000000000001  0.3363000000000001  1.0000
  O   O174      1.0  0.7258  0.9007  0.3363000000000001  1.0000
  O   O175      1.0  0.2708  0.102  0.2643  1.0000
  O   O176      1.0  0.898  0.16879999999999998  0.2643  1.0000
  O   O177      1.0  0.8312  0.7292  0.2643  1.0000
  O   O178      1.0  0.7292000000000001  0.8979999999999999  0.7643000000000001  1.0000
  O   O179      1.0  0.10199999999999998  0.8311999999999999  0.7643000000000001  1.0000
  O   O180      1.0  0.1688  0.2708  0.7643000000000001  1.0000
  O   O181      1.0  0.898  0.7292  0.7643000000000001  1.0000
  O   O182      1.0  0.8312  0.102  0.7643000000000001  1.0000
  O   O183      1.0  0.2708  0.16879999999999998  0.7643000000000001  1.0000
  O   O184      1.0  0.10200000000000001  0.2708  0.2643  1.0000
  O   O185      1.0  0.16879999999999998  0.8979999999999999  0.2643  1.0000
  O   O186      1.0  0.7292000000000001  0.8311999999999999  0.2643  1.0000
  O   O187      1.0  0.24210000000000007  0.0  0.23720000000000005  1.0000
  O   O188      1.0  0.0  0.24210000000000004  0.23720000000000005  1.0000
  O   O189      1.0  0.7579  0.7579  0.23720000000000005  1.0000
  O   O190      1.0  0.7579  0.0  0.7372000000000001  1.0000
  O   O191      1.0  0.0  0.7579  0.7372000000000001  1.0000
  O   O192      1.0  0.24210000000000007  0.24210000000000004  0.7372000000000001  1.0000
  O   O193      1.0  0.3530000000000001  0.0779  0.22740000000000002  1.0000
  O   O194      1.0  0.9221000000000001  0.2751  0.22740000000000002  1.0000
  O   O195      1.0  0.7249  0.647  0.22740000000000002  1.0000
  O   O196      1.0  0.647  0.9221  0.7274000000000002  1.0000
  O   O197      1.0  0.07790000000000001  0.7249  0.7274000000000002  1.0000
  O   O198      1.0  0.2751  0.35300000000000004  0.7274000000000002  1.0000
  O   O199      1.0  0.9221000000000001  0.647  0.7274000000000002  1.0000
  O   O200      1.0  0.7249  0.0779  0.7274000000000002  1.0000
  O   O201      1.0  0.3530000000000001  0.2751  0.7274000000000002  1.0000
  O   O202      1.0  0.0779  0.35300000000000004  0.22740000000000002  1.0000
  O   O203      1.0  0.2751  0.9221  0.22740000000000002  1.0000
  O   O204      1.0  0.647  0.7249  0.22740000000000002  1.0000
  O   O205      1.0  0.4539  0.106  0.1813  1.0000
  O   O206      1.0  0.894  0.34790000000000004  0.1813  1.0000
  O   O207      1.0  0.6520999999999999  0.5461  0.1813  1.0000
  O   O208      1.0  0.5461  0.894  0.6813000000000001  1.0000
  O   O209      1.0  0.10599999999999998  0.6520999999999999  0.6813000000000001  1.0000
  O   O210      1.0  0.34790000000000004  0.4539  0.6813000000000001  1.0000
  O   O211      1.0  0.894  0.5461  0.6813000000000001  1.0000
  O   O212      1.0  0.6520999999999999  0.106  0.6813000000000001  1.0000
  O   O213      1.0  0.4539  0.34790000000000004  0.6813000000000001  1.0000
  O   O214      1.0  0.106  0.4539  0.1813  1.0000
  O   O215      1.0  0.34790000000000004  0.894  0.1813  1.0000
  O   O216      1.0  0.5461  0.6520999999999999  0.1813  1.0000
  O   O217      1.0  0.4021  0.0  0.1247  1.0000
  O   O218      1.0  0.0  0.4021  0.1247  1.0000
  O   O219      1.0  0.5979  0.5979  0.1247  1.0000
  O   O220      1.0  0.5979  0.0  0.6247  1.0000
  O   O221      1.0  0.0  0.5979  0.6247  1.0000
  O   O222      1.0  0.4021  0.4021  0.6247  1.0000
  O   O223      1.0  0.4852  0.08690000000000002  0.051100000000000007  1.0000
  O   O224      1.0  0.9131  0.3983  0.051100000000000007  1.0000
  O   O225      1.0  0.6017000000000001  0.5147999999999999  0.051100000000000007  1.0000
  O   O226      1.0  0.5147999999999999  0.9131  0.5511  1.0000
  O   O227      1.0  0.08690000000000003  0.6017  0.5511  1.0000
  O   O228      1.0  0.3983  0.4852  0.5511  1.0000
  O   O229      1.0  0.9131  0.5147999999999999  0.5511  1.0000
  O   O230      1.0  0.6017000000000001  0.08690000000000002  0.5511  1.0000
  O   O231      1.0  0.4852  0.3983  0.5511  1.0000
  O   O232      1.0  0.08690000000000003  0.4852  0.051100000000000007  1.0000
  O   O233      1.0  0.3983  0.9131  0.051100000000000007  1.0000
  O   O234      1.0  0.5147999999999999  0.6017  0.051100000000000007  1.0000
  O   O235      1.0  0.5122000000000001  0.0537  0.17460000000000003  1.0000
  O   O236      1.0  0.9463  0.45850000000000013  0.17460000000000003  1.0000
  O   O237      1.0  0.5414999999999999  0.48779999999999984  0.17460000000000003  1.0000
  O   O238      1.0  0.4878  0.9463000000000001  0.6746000000000001  1.0000
  O   O239      1.0  0.0537  0.5414999999999999  0.6746000000000001  1.0000
  O   O240      1.0  0.4585000000000002  0.5122000000000001  0.6746000000000001  1.0000
  O   O241      1.0  0.9462999999999999  0.48779999999999984  0.6746000000000001  1.0000
  O   O242      1.0  0.5414999999999999  0.0537  0.6746000000000001  1.0000
  O   O243      1.0  0.5122000000000001  0.45850000000000013  0.6746000000000001  1.0000
  O   O244      1.0  0.053699999999999984  0.5122000000000001  0.17460000000000003  1.0000
  O   O245      1.0  0.45850000000000024  0.9463000000000001  0.17460000000000003  1.0000
  O   O246      1.0  0.48779999999999996  0.5414999999999999  0.17460000000000003  1.0000
  O   O247      1.0  0.471  0.0  0.9529  1.0000
  O   O248      1.0  0.0  0.4709999999999999  0.9529  1.0000
  O   O249      1.0  0.529  0.529  0.9529  1.0000
  O   O250      1.0  0.529  0.0  0.4529  1.0000
  O   O251      1.0  0.0  0.529  0.4529  1.0000
  O   O252      1.0  0.471  0.4709999999999999  0.4529  1.0000
  O   O253      1.0  0.5112  0.0981  0.9357000000000001  1.0000
  O   O254      1.0  0.9019  0.41309999999999997  0.9357000000000001  1.0000
  O   O255      1.0  0.5869  0.4888  0.9357000000000001  1.0000
  O   O256      1.0  0.4888  0.9018999999999999  0.4357  1.0000
  O   O257      1.0  0.09809999999999999  0.5869  0.4357  1.0000
  O   O258      1.0  0.41309999999999997  0.5112  0.4357  1.0000
  O   O259      1.0  0.9019  0.4888  0.4357  1.0000
  O   O260      1.0  0.5869  0.0981  0.4357  1.0000
  O   O261      1.0  0.5112  0.41309999999999997  0.4357  1.0000
  O   O262      1.0  0.09809999999999999  0.5112  0.9357000000000001  1.0000
  O   O263      1.0  0.4130999999999999  0.9018999999999999  0.9357000000000001  1.0000
  O   O264      1.0  0.48880000000000007  0.5869  0.9357000000000001  1.0000
  O   O265      1.0  0.5808  0.0892  0.007000000000000002  1.0000
  O   O266      1.0  0.9108  0.4916  0.007000000000000002  1.0000
  O   O267      1.0  0.5084  0.4192  0.007000000000000002  1.0000
  O   O268      1.0  0.41919999999999996  0.9107999999999999  0.507  1.0000
  O   O269      1.0  0.08920000000000002  0.5084  0.507  1.0000
  O   O270      1.0  0.4916  0.5808  0.507  1.0000
  O   O271      1.0  0.9108  0.4192  0.507  1.0000
  O   O272      1.0  0.5084  0.0892  0.507  1.0000
  O   O273      1.0  0.5808  0.4916  0.507  1.0000
  O   O274      1.0  0.08920000000000002  0.5808  0.007000000000000002  1.0000
  O   O275      1.0  0.4915999999999999  0.9107999999999999  0.007000000000000002  1.0000
  O   O276      1.0  0.4192  0.5084  0.007000000000000002  1.0000
  O   O277      1.0  0.5016  0.0  0.06420000000000001  1.0000
  O   O278      1.0  0.0  0.5016  0.06420000000000001  1.0000
  O   O279      1.0  0.49839999999999995  0.49839999999999995  0.06420000000000001  1.0000
  O   O280      1.0  0.49839999999999995  0.0  0.5642  1.0000
  O   O281      1.0  1.6630534785875024e-18  0.49839999999999995  0.5642  1.0000
  O   O282      1.0  0.5016  0.5016  0.5642  1.0000
  O   O283      1.0  0.6040000000000002  0.0  0.0184  1.0000
  O   O284      1.0  0.0  0.6040000000000001  0.0184  1.0000
  O   O285      1.0  0.396  0.39599999999999996  0.0184  1.0000
  O   O286      1.0  0.39599999999999996  0.0  0.5184000000000001  1.0000
  O   O287      1.0  3.6846248617874643e-17  0.39599999999999996  0.5184000000000001  1.0000
  O   O288      1.0  0.6040000000000002  0.6040000000000001  0.5184000000000001  1.0000
  O   O289      1.0  0.5984  0.0545  0.1269  1.0000
  O   O290      1.0  0.9455000000000001  0.5439  0.1269  1.0000
  O   O291      1.0  0.45609999999999995  0.40159999999999996  0.1269  1.0000
  O   O292      1.0  0.4016  0.9455  0.6269  1.0000
  O   O293      1.0  0.054499999999999986  0.4560999999999999  0.6269  1.0000
  O   O294      1.0  0.5439  0.5984  0.6269  1.0000
  O   O295      1.0  0.9455000000000001  0.40159999999999996  0.6269  1.0000
  O   O296      1.0  0.45609999999999995  0.0545  0.6269  1.0000
  O   O297      1.0  0.5984  0.5439  0.6269  1.0000
  O   O298      1.0  0.05449999999999999  0.5984  0.1269  1.0000
  O   O299      1.0  0.5439  0.9455  0.1269  1.0000
  O   O300      1.0  0.4016  0.4560999999999999  0.1269  1.0000
  O   O301      1.0  0.5484  0.0  0.23030000000000006  1.0000
  O   O302      1.0  1.1529132090141467e-17  0.5484  0.23030000000000006  1.0000
  O   O303      1.0  0.45159999999999995  0.45159999999999995  0.23030000000000006  1.0000
  O   O304      1.0  0.4516  0.0  0.7303000000000002  1.0000
  O   O305      1.0  0.0  0.45159999999999995  0.7303000000000002  1.0000
  O   O306      1.0  0.5484  0.5484  0.7303000000000002  1.0000
