data_image0
_chemical_formula_structural       Al16F48
_chemical_formula_sum              "Al16 F48"
_cell_length_a       10.1843
_cell_length_b       10.1843
_cell_length_c       7.1738
_cell_angle_alpha    90.0
_cell_angle_beta     90.0
_cell_angle_gamma    90.0

_space_group_name_H-M_alt    "P 1"
_space_group_IT_number       1

loop_
  _space_group_symop_operation_xyz
  'x, y, z'

loop_
  _atom_site_type_symbol
  _atom_site_label
  _atom_site_symmetry_multiplicity
  _atom_site_fract_x
  _atom_site_fract_y
  _atom_site_fract_z
  _atom_site_occupancy
  Al  Al1       1.0  0.0  0.0  0.0  1.0000
  Al  Al2       1.0  0.5  0.0  0.0  1.0000
  Al  Al3       1.0  0.0  0.5  0.0  1.0000
  Al  Al4       1.0  0.5  0.5  0.0  1.0000
  Al  Al5       1.0  0.25  0.9135  0.3287  1.0000
  Al  Al6       1.0  0.25  0.5865  0.3287  1.0000
  Al  Al7       1.0  0.9135  0.25  0.3287  1.0000
  Al  Al8       1.0  0.5865  0.25  0.3287  1.0000
  Al  Al9       1.0  0.75  0.08650000000000002  0.6713  1.0000
  Al  Al10      1.0  0.75  0.4135  0.6713  1.0000
  Al  Al11      1.0  0.08650000000000002  0.75  0.6713  1.0000
  Al  Al12      1.0  0.4135  0.75  0.6713  1.0000
  Al  Al13      1.0  0.25  0.25  0.41209999999999997  1.0000
  Al  Al14      1.0  0.75  0.75  0.5879000000000001  1.0000
  Al  Al15      1.0  0.25  0.25  0.9082  1.0000
  Al  Al16      1.0  0.75  0.75  0.09179999999999999  1.0000
  F   F1        1.0  0.6216000000000002  0.0524  0.839  1.0000
  F   F2        1.0  0.8783999999999998  0.0524  0.839  1.0000
  F   F3        1.0  0.6216000000000002  0.44760000000000005  0.839  1.0000
  F   F4        1.0  0.8783999999999998  0.44760000000000005  0.839  1.0000
  F   F5        1.0  0.0524  0.6216000000000002  0.839  1.0000
  F   F6        1.0  0.44760000000000005  0.6216000000000002  0.839  1.0000
  F   F7        1.0  0.0524  0.8783999999999998  0.839  1.0000
  F   F8        1.0  0.44760000000000005  0.8783999999999998  0.839  1.0000
  F   F9        1.0  0.37839999999999985  0.9476000000000001  0.16100000000000003  1.0000
  F   F10       1.0  0.12160000000000015  0.9476000000000001  0.16100000000000003  1.0000
  F   F11       1.0  0.37839999999999985  0.5524  0.16100000000000003  1.0000
  F   F12       1.0  0.12160000000000015  0.5524  0.16100000000000003  1.0000
  F   F13       1.0  0.9476000000000001  0.37839999999999985  0.16100000000000003  1.0000
  F   F14       1.0  0.5524  0.37839999999999985  0.16100000000000003  1.0000
  F   F15       1.0  0.9476000000000001  0.12160000000000015  0.16100000000000003  1.0000
  F   F16       1.0  0.5524  0.12160000000000015  0.16100000000000003  1.0000
  F   F17       1.0  0.25  0.0781  0.41049999999999986  1.0000
  F   F18       1.0  0.25  0.4219  0.41049999999999986  1.0000
  F   F19       1.0  0.0781  0.25  0.41049999999999986  1.0000
  F   F20       1.0  0.4219  0.25  0.41049999999999986  1.0000
  F   F21       1.0  0.75  0.9219  0.5895000000000001  1.0000
  F   F22       1.0  0.75  0.5781000000000002  0.5895000000000001  1.0000
  F   F23       1.0  0.9219  0.75  0.5895000000000001  1.0000
  F   F24       1.0  0.5781000000000002  0.75  0.5895000000000001  1.0000
  F   F25       1.0  0.1215  0.1215  0.9089  1.0000
  F   F26       1.0  0.3785  0.1215  0.9089  1.0000
  F   F27       1.0  0.1215  0.3785  0.9089  1.0000
  F   F28       1.0  0.3785  0.3785  0.9089  1.0000
  F   F29       1.0  0.8785000000000001  0.8785000000000001  0.09109999999999996  1.0000
  F   F30       1.0  0.6215  0.8785000000000001  0.09109999999999996  1.0000
  F   F31       1.0  0.8785000000000001  0.6215  0.09109999999999996  1.0000
  F   F32       1.0  0.6215  0.6215  0.09109999999999996  1.0000
  F   F33       1.0  0.1267  0.8733000000000001  0.5  1.0000
  F   F34       1.0  0.37329999999999997  0.8733000000000001  0.5  1.0000
  F   F35       1.0  0.1267  0.6267  0.5  1.0000
  F   F36       1.0  0.37329999999999997  0.6267  0.5  1.0000
  F   F37       1.0  0.8733000000000001  0.1267  0.5  1.0000
  F   F38       1.0  0.6267  0.1267  0.5  1.0000
  F   F39       1.0  0.8733000000000001  0.37329999999999997  0.5  1.0000
  F   F40       1.0  0.6267  0.37329999999999997  0.5  1.0000
  F   F41       1.0  0.75  0.25  0.24419999999999994  1.0000
  F   F42       1.0  0.25  0.75  0.24419999999999994  1.0000
  F   F43       1.0  0.25  0.75  0.7557999999999999  1.0000
  F   F44       1.0  0.75  0.25  0.7557999999999999  1.0000
  F   F45       1.0  0.25  0.25  0.6633  1.0000
  F   F46       1.0  0.75  0.75  0.3367  1.0000
  F   F47       1.0  0.25  0.25  0.1606  1.0000
  F   F48       1.0  0.75  0.75  0.8394  1.0000
