data_image0
_chemical_formula_structural       N2H12
_chemical_formula_sum              "N2 H12"
_cell_length_a       3.438
_cell_length_b       3.438
_cell_length_c       3.438
_cell_angle_alpha    90.0
_cell_angle_beta     90.0
_cell_angle_gamma    90.0

_space_group_name_H-M_alt    "P 1"
_space_group_IT_number       1

loop_
  _space_group_symop_operation_xyz
  'x, y, z'

loop_
  _atom_site_type_symbol
  _atom_site_label
  _atom_site_symmetry_multiplicity
  _atom_site_fract_x
  _atom_site_fract_y
  _atom_site_fract_z
  _atom_site_occupancy
  N   N1        1.0  0.0  0.0  0.0  1.0000
  N   N2        1.0  0.5  0.5  0.5  1.0000
  H   H1        1.0  0.25  0.0  0.5  0.1387
  H   H2        1.0  0.5  0.25  0.0  0.1387
  H   H3        1.0  0.0  0.5  0.25  0.1387
  H   H4        1.0  0.0  0.5  0.75  0.1387
  H   H5        1.0  0.75  0.0  0.5  0.1387
  H   H6        1.0  0.5  0.75  0.0  0.1387
  H   H7        1.0  0.0  0.25  0.5  0.1387
  H   H8        1.0  0.5  0.0  0.25  0.1387
  H   H9        1.0  0.25  0.5  0.0  0.1387
  H   H10       1.0  0.5  0.0  0.75  0.1387
  H   H11       1.0  0.75  0.5  0.0  0.1387
  H   H12       1.0  0.0  0.75  0.5  0.1387
