data_image0
_chemical_formula_structural       Nd5Cu5O13
_chemical_formula_sum              "Nd5 Cu5 O13"
_cell_length_a       8.56
_cell_length_b       8.534
_cell_length_c       3.777
_cell_angle_alpha    90.0
_cell_angle_beta     90.0
_cell_angle_gamma    90.45

_space_group_name_H-M_alt    "P 1"
_space_group_IT_number       1

loop_
  _space_group_symop_operation_xyz
  'x, y, z'

loop_
  _atom_site_type_symbol
  _atom_site_label
  _atom_site_symmetry_multiplicity
  _atom_site_fract_x
  _atom_site_fract_y
  _atom_site_fract_z
  _atom_site_occupancy
  Nd  Nd1       1.0  0.5  0.5  0.5  1.0000
  Nd  Nd2       1.0  0.1369  0.7293  0.5  1.0000
  Nd  Nd3       1.0  0.8631  0.27070000000000005  0.5  1.0000
  Nd  Nd4       1.0  0.2732  0.1459  0.5  1.0000
  Nd  Nd5       1.0  0.7268  0.8541  0.5  1.0000
  Cu  Cu1       1.0  0.0  0.0  0.0  1.0000
  Cu  Cu2       1.0  0.16600000000000006  0.42  0.0  1.0000
  Cu  Cu3       1.0  0.8340000000000001  0.5800000000000001  0.0  1.0000
  Cu  Cu4       1.0  0.429  0.83  0.0  1.0000
  Cu  Cu5       1.0  0.5710000000000001  0.17000000000000004  0.0  1.0000
  O   O1        1.0  0.075  0.159  0.0  1.0000
  O   O2        1.0  0.9250000000000002  0.841  0.0  1.0000
  O   O3        1.0  0.366  0.281  0.0  1.0000
  O   O4        1.0  0.6340000000000001  0.719  0.0  1.0000
  O   O5        1.0  0.281  0.611  0.0  1.0000
  O   O6        1.0  0.7190000000000001  0.389  0.0  1.0000
  O   O7        1.0  0.23900000000000002  0.943  0.0  1.0000
  O   O8        1.0  0.761  0.05700000000000005  0.0  1.0000
  O   O9        1.0  0.154  0.424  0.5  1.0000
  O   O10       1.0  0.846  0.5760000000000001  0.5  1.0000
  O   O11       1.0  0.396  0.824  0.5  1.0000
  O   O12       1.0  0.604  0.17600000000000005  0.5  1.0000
  O   O13       1.0  0.0  0.0  0.5  1.0000
