data_image0
_chemical_formula_structural       Cr6Cl18
_chemical_formula_sum              "Cr6 Cl18"
_cell_length_a       6.017
_cell_length_b       6.017
_cell_length_c       17.3
_cell_angle_alpha    90.0
_cell_angle_beta     90.0
_cell_angle_gamma    119.99999999999999

_space_group_name_H-M_alt    "P 1"
_space_group_IT_number       1

loop_
  _space_group_symop_operation_xyz
  'x, y, z'

loop_
  _atom_site_type_symbol
  _atom_site_label
  _atom_site_symmetry_multiplicity
  _atom_site_fract_x
  _atom_site_fract_y
  _atom_site_fract_z
  _atom_site_occupancy
  Cr  Cr1       1.0  0.22219999999999995  0.1111  0.0  1.0000
  Cr  Cr2       1.0  0.8888999999999999  0.11109999999999998  0.6666666666666666  1.0000
  Cr  Cr3       1.0  0.8888999999999999  0.7778000000000002  0.3333333333333333  1.0000
  Cr  Cr4       1.0  0.8888999999999999  0.4444  0.0  1.0000
  Cr  Cr5       1.0  0.5556  0.4444999999999999  0.6666666666666666  1.0000
  Cr  Cr6       1.0  0.5555000000000001  0.11110000000000009  0.3333333333333333  1.0000
  Cl  Cl1       1.0  0.8888999999999999  0.1111  0.0731  1.0000
  Cl  Cl2       1.0  0.8888999999999999  0.7777999999999999  0.7397666666666667  1.0000
  Cl  Cl3       1.0  0.22220000000000006  0.11110000000000009  0.40643333333333337  1.0000
  Cl  Cl4       1.0  0.8888999999999999  0.11110000000000009  0.2602333333333333  1.0000
  Cl  Cl5       1.0  0.22220000000000006  0.1111  0.5935666666666666  1.0000
  Cl  Cl6       1.0  0.8888999999999999  0.7777999999999999  0.9269000000000001  1.0000
  Cl  Cl7       1.0  0.5556  0.4444  0.0731  1.0000
  Cl  Cl8       1.0  0.5556  0.11119999999999998  0.7397666666666667  1.0000
  Cl  Cl9       1.0  0.8887999999999999  0.4444  0.40643333333333337  1.0000
  Cl  Cl10      1.0  0.5556  0.4444  0.2602333333333333  1.0000
  Cl  Cl11      1.0  0.8887999999999999  0.4444  0.5935666666666666  1.0000
  Cl  Cl12      1.0  0.5556  0.11119999999999998  0.9269000000000001  1.0000
  Cl  Cl13      1.0  0.22220000000000006  0.7778000000000002  0.0731  1.0000
  Cl  Cl14      1.0  0.22219999999999984  0.4443999999999999  0.7397666666666667  1.0000
  Cl  Cl15      1.0  0.5556  0.7777999999999999  0.40643333333333337  1.0000
  Cl  Cl16      1.0  0.22219999999999984  0.7777999999999999  0.2602333333333333  1.0000
  Cl  Cl17      1.0  0.5556  0.7778000000000002  0.5935666666666666  1.0000
  Cl  Cl18      1.0  0.22220000000000006  0.4443999999999999  0.9269000000000001  1.0000
