data_image0
_chemical_formula_structural       F9Sc3
_chemical_formula_sum              "F9 Sc3"
_cell_length_a       7.81632
_cell_length_b       7.816319999999999
_cell_length_c       4.01147
_cell_angle_alpha    90.0
_cell_angle_beta     90.0
_cell_angle_gamma    119.99999999999999

_space_group_name_H-M_alt    "P 1"
_space_group_IT_number       1

loop_
  _space_group_symop_operation_xyz
  'x, y, z'

loop_
  _atom_site_type_symbol
  _atom_site_label
  _atom_site_symmetry_multiplicity
  _atom_site_fract_x
  _atom_site_fract_y
  _atom_site_fract_z
  _atom_site_occupancy
  F   F1        1.0  0.21274000000000007  0.4255  0.0  1.0000
  F   F2        1.0  0.7872600000000001  0.21275999999999998  0.0  1.0000
  F   F3        1.0  0.7872600000000002  0.5745000000000001  0.0  1.0000
  F   F4        1.0  0.21276000000000003  0.7872600000000001  0.0  1.0000
  F   F5        1.0  0.5745000000000001  0.7872600000000001  0.0  1.0000
  F   F6        1.0  0.4255  0.21275999999999998  0.0  1.0000
  F   F7        1.0  0.5  0.0  0.5  1.0000
  F   F8        1.0  0.5  0.5  0.5  1.0000
  F   F9        1.0  0.0  0.5  0.5  1.0000
  Sc  Sc1       1.0  0.5  0.0  0.0  1.0000
  Sc  Sc2       1.0  0.5  0.5  0.0  1.0000
  Sc  Sc3       1.0  0.0  0.5  0.0  1.0000
