data_image0
_chemical_formula_structural       Cr16Se32Cu8
_chemical_formula_sum              "Cr16 Se32 Cu8"
_cell_length_a       10.331
_cell_length_b       10.331
_cell_length_c       10.331
_cell_angle_alpha    90.0
_cell_angle_beta     90.0
_cell_angle_gamma    90.0

_space_group_name_H-M_alt    "P 1"
_space_group_IT_number       1

loop_
  _space_group_symop_operation_xyz
  'x, y, z'

loop_
  _atom_site_type_symbol
  _atom_site_label
  _atom_site_symmetry_multiplicity
  _atom_site_fract_x
  _atom_site_fract_y
  _atom_site_fract_z
  _atom_site_occupancy
  Cr  Cr1       1.0  0.0  0.0  0.0  1.0000
  Cr  Cr2       1.0  0.75  0.25  0.5  1.0000
  Cr  Cr3       1.0  0.25  0.5  0.75  1.0000
  Cr  Cr4       1.0  0.5  0.75  0.25  1.0000
  Cr  Cr5       1.0  0.0  0.5  0.5  1.0000
  Cr  Cr6       1.0  0.75  0.75  0.0  1.0000
  Cr  Cr7       1.0  0.25  0.0  0.25  1.0000
  Cr  Cr8       1.0  0.5  0.25  0.75  1.0000
  Cr  Cr9       1.0  0.5  0.0  0.5  1.0000
  Cr  Cr10      1.0  0.25  0.25  0.0  1.0000
  Cr  Cr11      1.0  0.75  0.5  0.25  1.0000
  Cr  Cr12      1.0  0.0  0.75  0.75  1.0000
  Cr  Cr13      1.0  0.5  0.5  0.0  1.0000
  Cr  Cr14      1.0  0.25  0.75  0.5  1.0000
  Cr  Cr15      1.0  0.75  0.0  0.75  1.0000
  Cr  Cr16      1.0  0.0  0.25  0.25  1.0000
  Se  Se1       1.0  0.24242  0.24242  0.24242  1.0000
  Se  Se2       1.0  0.50758  0.0075800000000000025  0.74242  1.0000
  Se  Se3       1.0  0.0075800000000000025  0.74242  0.50758  1.0000
  Se  Se4       1.0  0.74242  0.50758  0.0075800000000000025  1.0000
  Se  Se5       1.0  0.9924199999999999  0.49241999999999997  0.25758000000000003  1.0000
  Se  Se6       1.0  0.75758  0.75758  0.75758  1.0000
  Se  Se7       1.0  0.49241999999999997  0.25758000000000003  0.9924199999999999  1.0000
  Se  Se8       1.0  0.25758000000000003  0.9924199999999999  0.49241999999999997  1.0000
  Se  Se9       1.0  0.24242  0.74242  0.74242  1.0000
  Se  Se10      1.0  0.50758  0.50758  0.24242  1.0000
  Se  Se11      1.0  0.0075800000000000025  0.24242  0.0075800000000000025  1.0000
  Se  Se12      1.0  0.74242  0.0075800000000000025  0.50758  1.0000
  Se  Se13      1.0  0.9924199999999999  0.9924199999999999  0.75758  1.0000
  Se  Se14      1.0  0.75758  0.25758000000000003  0.25758000000000003  1.0000
  Se  Se15      1.0  0.49241999999999997  0.75758  0.49241999999999997  1.0000
  Se  Se16      1.0  0.25758000000000003  0.49241999999999997  0.9924199999999999  1.0000
  Se  Se17      1.0  0.74242  0.24242  0.74242  1.0000
  Se  Se18      1.0  0.0075800000000000025  0.0075800000000000025  0.24242  1.0000
  Se  Se19      1.0  0.50758  0.74242  0.0075800000000000025  1.0000
  Se  Se20      1.0  0.24242  0.50758  0.50758  1.0000
  Se  Se21      1.0  0.49241999999999997  0.49241999999999997  0.75758  1.0000
  Se  Se22      1.0  0.25758000000000003  0.75758  0.25758000000000003  1.0000
  Se  Se23      1.0  0.9924199999999999  0.25758000000000003  0.49241999999999997  1.0000
  Se  Se24      1.0  0.75758  0.9924199999999999  0.9924199999999999  1.0000
  Se  Se25      1.0  0.74242  0.74242  0.24242  1.0000
  Se  Se26      1.0  0.0075800000000000025  0.50758  0.74242  1.0000
  Se  Se27      1.0  0.50758  0.24242  0.50758  1.0000
  Se  Se28      1.0  0.24242  0.0075800000000000025  0.0075800000000000025  1.0000
  Se  Se29      1.0  0.49241999999999997  0.9924199999999999  0.25758000000000003  1.0000
  Se  Se30      1.0  0.25758000000000003  0.25758000000000003  0.75758  1.0000
  Se  Se31      1.0  0.9924199999999999  0.75758  0.9924199999999999  1.0000
  Se  Se32      1.0  0.75758  0.49241999999999997  0.49241999999999997  1.0000
  Cu  Cu1       1.0  0.625  0.625  0.625  0.8000
  Cu  Cu2       1.0  0.125  0.625  0.125  0.8000
  Cu  Cu3       1.0  0.625  0.125  0.125  0.8000
  Cu  Cu4       1.0  0.125  0.125  0.625  0.8000
  Cu  Cu5       1.0  0.375  0.8749999999999999  0.8749999999999999  0.8000
  Cu  Cu6       1.0  0.375  0.375  0.375  0.8000
  Cu  Cu7       1.0  0.8749999999999999  0.8749999999999999  0.375  0.8000
  Cu  Cu8       1.0  0.8749999999999999  0.375  0.8749999999999999  0.8000
  Co  Co1       1.0  0.625  0.625  0.625  0.2000
  Co  Co2       1.0  0.125  0.625  0.125  0.2000
  Co  Co3       1.0  0.625  0.125  0.125  0.2000
  Co  Co4       1.0  0.125  0.125  0.625  0.2000
  Co  Co5       1.0  0.375  0.8749999999999999  0.8749999999999999  0.2000
  Co  Co6       1.0  0.375  0.375  0.375  0.2000
  Co  Co7       1.0  0.8749999999999999  0.8749999999999999  0.375  0.2000
  Co  Co8       1.0  0.8749999999999999  0.375  0.8749999999999999  0.2000
