data_image0
_chemical_formula_structural       Ba12Ga8N16
_chemical_formula_sum              "Ba12 Ga8 N16"
_cell_length_a       6.201
_cell_length_b       10.511
_cell_length_c       10.07
_cell_angle_alpha    90.0
_cell_angle_beta     90.0
_cell_angle_gamma    90.0

_space_group_name_H-M_alt    "P 1"
_space_group_IT_number       1

loop_
  _space_group_symop_operation_xyz
  'x, y, z'

loop_
  _atom_site_type_symbol
  _atom_site_label
  _atom_site_symmetry_multiplicity
  _atom_site_fract_x
  _atom_site_fract_y
  _atom_site_fract_z
  _atom_site_occupancy
  Ba  Ba1       1.0  0.11102  0.34415  0.91335  1.0000
  Ba  Ba2       1.0  0.38898  0.65585  0.91335  1.0000
  Ba  Ba3       1.0  0.11102  0.15585  0.58665  1.0000
  Ba  Ba4       1.0  0.38898  0.8441499999999998  0.58665  1.0000
  Ba  Ba5       1.0  0.8889800000000001  0.65585  0.08665  1.0000
  Ba  Ba6       1.0  0.61102  0.34415  0.08665  1.0000
  Ba  Ba7       1.0  0.8889800000000001  0.8441499999999998  0.4133499999999999  1.0000
  Ba  Ba8       1.0  0.61102  0.15585  0.4133499999999999  1.0000
  Ba  Ba9       1.0  0.25  0.0  0.90519  1.0000
  Ba  Ba10      1.0  0.25  0.5  0.59481  1.0000
  Ba  Ba11      1.0  0.75  0.0  0.09480999999999995  1.0000
  Ba  Ba12      1.0  0.75  0.5  0.4051900000000002  1.0000
  Ga  Ga1       1.0  0.25  0.0  0.22956999999999997  1.0000
  Ga  Ga2       1.0  0.25  0.5  0.27043000000000006  1.0000
  Ga  Ga3       1.0  0.75  0.0  0.7704300000000001  1.0000
  Ga  Ga4       1.0  0.75  0.5  0.7295699999999999  1.0000
  Ga  Ga5       1.0  0.16360000000000005  0.25  0.25  1.0000
  Ga  Ga6       1.0  0.3364  0.75  0.25  1.0000
  Ga  Ga7       1.0  0.8364  0.75  0.75  1.0000
  Ga  Ga8       1.0  0.6636  0.25  0.75  1.0000
  N   N1        1.0  0.36120000000000013  0.1467  0.1281  1.0000
  N   N2        1.0  0.13879999999999992  0.8533  0.1281  1.0000
  N   N3        1.0  0.36120000000000013  0.3533  0.3719  1.0000
  N   N4        1.0  0.13879999999999992  0.6467  0.3719  1.0000
  N   N5        1.0  0.6387999999999999  0.8533  0.8718999999999999  1.0000
  N   N6        1.0  0.8612000000000001  0.1467  0.8718999999999999  1.0000
  N   N7        1.0  0.6387999999999999  0.6467  0.6281  1.0000
  N   N8        1.0  0.8612000000000001  0.3533  0.6281  1.0000
  N   N9        1.0  0.0176  0.09549999999999999  0.3294  1.0000
  N   N10       1.0  0.48240000000000005  0.9045  0.3294  1.0000
  N   N11       1.0  0.0176  0.4045  0.17059999999999997  1.0000
  N   N12       1.0  0.48240000000000005  0.5955  0.17059999999999997  1.0000
  N   N13       1.0  0.9824000000000002  0.9045  0.6706  1.0000
  N   N14       1.0  0.5176  0.09549999999999999  0.6706  1.0000
  N   N15       1.0  0.9824000000000002  0.5955  0.8294000000000001  1.0000
  N   N16       1.0  0.5176  0.4045  0.8294000000000001  1.0000
