data_image0
_chemical_formula_structural       N12Co4N24O48
_chemical_formula_sum              "N36 Co4 O48"
_cell_length_a       10.78
_cell_length_b       10.78
_cell_length_c       10.78
_cell_angle_alpha    90.0
_cell_angle_beta     90.0
_cell_angle_gamma    90.0

_space_group_name_H-M_alt    "P 1"
_space_group_IT_number       1

loop_
  _space_group_symop_operation_xyz
  'x, y, z'

loop_
  _atom_site_type_symbol
  _atom_site_label
  _atom_site_symmetry_multiplicity
  _atom_site_fract_x
  _atom_site_fract_y
  _atom_site_fract_z
  _atom_site_occupancy
  N   N1        1.0  0.25  0.25  0.25  1.0000
  N   N2        1.0  0.75  0.75  0.75  1.0000
  N   N3        1.0  0.25  0.75  0.75  1.0000
  N   N4        1.0  0.75  0.25  0.25  1.0000
  N   N5        1.0  0.75  0.25  0.75  1.0000
  N   N6        1.0  0.25  0.75  0.25  1.0000
  N   N7        1.0  0.75  0.75  0.25  1.0000
  N   N8        1.0  0.25  0.25  0.75  1.0000
  N   N9        1.0  0.5  0.5  0.5  1.0000
  N   N10       1.0  0.5  0.0  0.0  1.0000
  N   N11       1.0  0.0  0.5  0.0  1.0000
  N   N12       1.0  0.0  0.0  0.5  1.0000
  Co  Co1       1.0  0.0  0.0  0.0  1.0000
  Co  Co2       1.0  0.0  0.5  0.5  1.0000
  Co  Co3       1.0  0.5  0.0  0.5  1.0000
  Co  Co4       1.0  0.5  0.5  0.0  1.0000
  N   N13       1.0  0.19500000000000003  0.0  0.0  1.0000
  N   N14       1.0  0.0  0.0  0.19500000000000003  1.0000
  N   N15       1.0  0.0  0.19500000000000003  0.0  1.0000
  N   N16       1.0  0.805  0.0  0.0  1.0000
  N   N17       1.0  0.0  0.0  0.805  1.0000
  N   N18       1.0  0.0  0.805  0.0  1.0000
  N   N19       1.0  0.19500000000000003  0.5  0.5  1.0000
  N   N20       1.0  0.6950000000000001  0.0  0.5  1.0000
  N   N21       1.0  0.6950000000000001  0.5  0.0  1.0000
  N   N22       1.0  0.0  0.5  0.6950000000000001  1.0000
  N   N23       1.0  0.5  0.0  0.6950000000000001  1.0000
  N   N24       1.0  0.5  0.5  0.19500000000000003  1.0000
  N   N25       1.0  0.0  0.6950000000000001  0.5  1.0000
  N   N26       1.0  0.5  0.19500000000000003  0.5  1.0000
  N   N27       1.0  0.5  0.6950000000000001  0.0  1.0000
  N   N28       1.0  0.805  0.5  0.5  1.0000
  N   N29       1.0  0.30499999999999994  0.0  0.5  1.0000
  N   N30       1.0  0.30499999999999994  0.5  0.0  1.0000
  N   N31       1.0  0.0  0.5  0.30499999999999994  1.0000
  N   N32       1.0  0.5  0.0  0.30499999999999994  1.0000
  N   N33       1.0  0.5  0.5  0.805  1.0000
  N   N34       1.0  0.0  0.30499999999999994  0.5  1.0000
  N   N35       1.0  0.5  0.805  0.5  1.0000
  N   N36       1.0  0.5  0.30499999999999994  0.0  1.0000
  O   O1        1.0  0.0  0.235  0.10000000000000002  1.0000
  O   O2        1.0  0.235  0.10000000000000002  0.0  1.0000
  O   O3        1.0  0.10000000000000002  0.0  0.235  1.0000
  O   O4        1.0  0.0  0.7649999999999999  0.9  1.0000
  O   O5        1.0  0.7649999999999999  0.9  0.0  1.0000
  O   O6        1.0  0.9  0.0  0.7649999999999999  1.0000
  O   O7        1.0  0.235  0.9  0.0  1.0000
  O   O8        1.0  0.10000000000000002  0.0  0.7649999999999999  1.0000
  O   O9        1.0  0.7649999999999999  0.10000000000000002  0.0  1.0000
  O   O10       1.0  0.9  0.0  0.235  1.0000
  O   O11       1.0  0.0  0.235  0.9  1.0000
  O   O12       1.0  0.0  0.7649999999999999  0.10000000000000002  1.0000
  O   O13       1.0  0.0  0.735  0.6  1.0000
  O   O14       1.0  0.5  0.235  0.6  1.0000
  O   O15       1.0  0.5  0.735  0.10000000000000002  1.0000
  O   O16       1.0  0.235  0.6  0.5  1.0000
  O   O17       1.0  0.735  0.10000000000000002  0.5  1.0000
  O   O18       1.0  0.735  0.6  0.0  1.0000
  O   O19       1.0  0.10000000000000002  0.5  0.735  1.0000
  O   O20       1.0  0.6  0.0  0.735  1.0000
  O   O21       1.0  0.6  0.5  0.235  1.0000
  O   O22       1.0  0.0  0.265  0.39999999999999997  1.0000
  O   O23       1.0  0.5  0.7649999999999999  0.39999999999999997  1.0000
  O   O24       1.0  0.5  0.265  0.9  1.0000
  O   O25       1.0  0.7649999999999999  0.39999999999999997  0.5  1.0000
  O   O26       1.0  0.265  0.9  0.5  1.0000
  O   O27       1.0  0.265  0.39999999999999997  0.0  1.0000
  O   O28       1.0  0.9  0.5  0.265  1.0000
  O   O29       1.0  0.39999999999999997  0.0  0.265  1.0000
  O   O30       1.0  0.39999999999999997  0.5  0.7649999999999999  1.0000
  O   O31       1.0  0.235  0.39999999999999997  0.5  1.0000
  O   O32       1.0  0.735  0.9  0.5  1.0000
  O   O33       1.0  0.735  0.39999999999999997  0.0  1.0000
  O   O34       1.0  0.10000000000000002  0.5  0.265  1.0000
  O   O35       1.0  0.6  0.0  0.265  1.0000
  O   O36       1.0  0.6  0.5  0.7649999999999999  1.0000
  O   O37       1.0  0.7649999999999999  0.6  0.5  1.0000
  O   O38       1.0  0.265  0.10000000000000002  0.5  1.0000
  O   O39       1.0  0.265  0.6  0.0  1.0000
  O   O40       1.0  0.9  0.5  0.735  1.0000
  O   O41       1.0  0.39999999999999997  0.0  0.735  1.0000
  O   O42       1.0  0.39999999999999997  0.5  0.235  1.0000
  O   O43       1.0  0.0  0.735  0.39999999999999997  1.0000
  O   O44       1.0  0.5  0.235  0.39999999999999997  1.0000
  O   O45       1.0  0.5  0.735  0.9  1.0000
  O   O46       1.0  0.0  0.265  0.6  1.0000
  O   O47       1.0  0.5  0.7649999999999999  0.6  1.0000
  O   O48       1.0  0.5  0.265  0.10000000000000002  1.0000
