data_image0
_chemical_formula_structural       Ta16Te16Si4
_chemical_formula_sum              "Ta16 Te16 Si4"
_cell_length_a       10.536
_cell_length_b       18.27499
_cell_length_c       4.799
_cell_angle_alpha    90.0
_cell_angle_beta     90.0
_cell_angle_gamma    90.0

_space_group_name_H-M_alt    "P 1"
_space_group_IT_number       1

loop_
  _space_group_symop_operation_xyz
  'x, y, z'

loop_
  _atom_site_type_symbol
  _atom_site_label
  _atom_site_symmetry_multiplicity
  _atom_site_fract_x
  _atom_site_fract_y
  _atom_site_fract_z
  _atom_site_occupancy
  Ta  Ta1       1.0  0.06550000000000002  0.1195  0.5  1.0000
  Ta  Ta2       1.0  0.9345  0.8805000000000002  0.5  1.0000
  Ta  Ta3       1.0  0.5655000000000001  0.3805  0.5  1.0000
  Ta  Ta4       1.0  0.4345  0.6194999999999999  0.5  1.0000
  Ta  Ta5       1.0  0.2086  0.9631  0.5  1.0000
  Ta  Ta6       1.0  0.7914000000000001  0.0369  0.5  1.0000
  Ta  Ta7       1.0  0.7086  0.5369  0.5  1.0000
  Ta  Ta8       1.0  0.2914  0.4631  0.5  1.0000
  Ta  Ta9       1.0  0.1935  0.0587  0.0  1.0000
  Ta  Ta10      1.0  0.8064999999999999  0.9413000000000001  0.0  1.0000
  Ta  Ta11      1.0  0.6935  0.4413  0.0  1.0000
  Ta  Ta12      1.0  0.3065  0.5587  0.0  1.0000
  Ta  Ta13      1.0  0.8988000000000002  0.1108  0.0  1.0000
  Ta  Ta14      1.0  0.1012  0.8892  0.0  1.0000
  Ta  Ta15      1.0  0.39880000000000004  0.3892  0.0  1.0000
  Ta  Ta16      1.0  0.6012  0.6108  0.0  1.0000
  Te  Te1       1.0  0.3578  0.9350000000000002  0.0  1.0000
  Te  Te2       1.0  0.6422000000000001  0.065  0.0  1.0000
  Te  Te3       1.0  0.8578000000000001  0.565  0.0  1.0000
  Te  Te4       1.0  0.1422  0.435  0.0  1.0000
  Te  Te5       1.0  0.8275  0.1906  0.5  1.0000
  Te  Te6       1.0  0.1725  0.8094  0.5  1.0000
  Te  Te7       1.0  0.3275  0.3094  0.5  1.0000
  Te  Te8       1.0  0.6725  0.6906  0.5  1.0000
  Te  Te9       1.0  0.3345  0.1004  0.5  1.0000
  Te  Te10      1.0  0.6655  0.8996000000000001  0.5  1.0000
  Te  Te11      1.0  0.8345  0.3996  0.5  1.0000
  Te  Te12      1.0  0.1655  0.6004  0.5  1.0000
  Te  Te13      1.0  0.11050000000000001  0.2064  0.0  1.0000
  Te  Te14      1.0  0.8895000000000001  0.7936  0.0  1.0000
  Te  Te15      1.0  0.6105  0.29359999999999997  0.0  1.0000
  Te  Te16      1.0  0.38949999999999996  0.7064  0.0  1.0000
  Si  Si1       1.0  0.0  0.0  0.24509999999999998  1.0000
  Si  Si2       1.0  0.5  0.5  0.7549  1.0000
  Si  Si3       1.0  0.0  0.0  0.7549  1.0000
  Si  Si4       1.0  0.5  0.5  0.24509999999999998  1.0000
