data_image0
_chemical_formula_structural       Re12Se16Cs4Cl12
_chemical_formula_sum              "Re12 Se16 Cs4 Cl12"
_cell_length_a       9.8333
_cell_length_b       9.8333
_cell_length_c       14.1252
_cell_angle_alpha    90.0
_cell_angle_beta     90.0
_cell_angle_gamma    119.99999999999999

_space_group_name_H-M_alt    "P 1"
_space_group_IT_number       1

loop_
  _space_group_symop_operation_xyz
  'x, y, z'

loop_
  _atom_site_type_symbol
  _atom_site_label
  _atom_site_symmetry_multiplicity
  _atom_site_fract_x
  _atom_site_fract_y
  _atom_site_fract_z
  _atom_site_occupancy
  Re  Re1       1.0  0.51324  0.17873  0.17423  0.6700
  Re  Re2       1.0  0.82127  0.33451000000000003  0.17423  0.6700
  Re  Re3       1.0  0.66549  0.48676  0.17423  0.6700
  Re  Re4       1.0  0.82127  0.48676  0.32576999999999995  0.6700
  Re  Re5       1.0  0.6654899999999999  0.17873  0.32576999999999995  0.6700
  Re  Re6       1.0  0.51324  0.33451000000000003  0.32576999999999995  0.6700
  Re  Re7       1.0  0.4867600000000001  0.8212700000000001  0.8257699999999999  0.6700
  Re  Re8       1.0  0.17873000000000006  0.66549  0.8257699999999999  0.6700
  Re  Re9       1.0  0.33451000000000003  0.51324  0.8257699999999999  0.6700
  Re  Re10      1.0  0.17873  0.51324  0.67423  0.6700
  Re  Re11      1.0  0.3345100000000001  0.8212700000000001  0.67423  0.6700
  Re  Re12      1.0  0.4867600000000001  0.66549  0.67423  0.6700
  Se  Se1       1.0  0.6667  0.3333  0.033299999999999996  1.0000
  Se  Se2       1.0  0.6667000000000001  0.33330000000000004  0.4667  1.0000
  Se  Se3       1.0  0.33330000000000004  0.6667000000000001  0.9666999999999999  1.0000
  Se  Se4       1.0  0.3333  0.6667  0.5332999999999999  1.0000
  Se  Se5       1.0  0.6703  0.0411  0.1763  1.0000
  Se  Se6       1.0  0.9589  0.6292  0.1763  1.0000
  Se  Se7       1.0  0.3708  0.3297  0.1763  1.0000
  Se  Se8       1.0  0.9589  0.3297  0.3237  1.0000
  Se  Se9       1.0  0.3708  0.0411  0.3237  1.0000
  Se  Se10      1.0  0.6703  0.6292  0.3237  1.0000
  Se  Se11      1.0  0.3297  0.9589  0.8237  1.0000
  Se  Se12      1.0  0.04109999999999999  0.3708  0.8237  1.0000
  Se  Se13      1.0  0.6292  0.6703  0.8237  1.0000
  Se  Se14      1.0  0.04109999999999998  0.6703  0.6762999999999999  1.0000
  Se  Se15      1.0  0.6292  0.9589  0.6762999999999999  1.0000
  Se  Se16      1.0  0.3297  0.3708  0.6762999999999999  1.0000
  Cs  Cs1       1.0  0.0  0.0  0.0  1.0000
  Cs  Cs2       1.0  0.0  0.0  0.49999999999999994  1.0000
  Cs  Cs3       1.0  0.3333  0.6667000000000001  0.24999999999999994  1.0000
  Cs  Cs4       1.0  0.6667000000000001  0.3333  0.7499999999999999  1.0000
  Cl  Cl1       1.0  0.3148  0.9714  0.0797  1.0000
  Cl  Cl2       1.0  0.028600000000000018  0.3434000000000001  0.0797  1.0000
  Cl  Cl3       1.0  0.6566  0.6852  0.0797  1.0000
  Cl  Cl4       1.0  0.0286  0.6852  0.4203  1.0000
  Cl  Cl5       1.0  0.6566  0.9714  0.4203  1.0000
  Cl  Cl6       1.0  0.3148000000000001  0.3434000000000001  0.4203  1.0000
  Cl  Cl7       1.0  0.6852  0.0286  0.9203  1.0000
  Cl  Cl8       1.0  0.9714000000000002  0.6566  0.9203  1.0000
  Cl  Cl9       1.0  0.34340000000000004  0.3148  0.9203  1.0000
  Cl  Cl10      1.0  0.9714000000000002  0.3148  0.5796999999999999  1.0000
  Cl  Cl11      1.0  0.34340000000000004  0.0286  0.5796999999999999  1.0000
  Cl  Cl12      1.0  0.6852  0.6566  0.5796999999999999  1.0000
  Os  Os1       1.0  0.51324  0.17873  0.17423  0.3300
  Os  Os2       1.0  0.82127  0.33451000000000003  0.17423  0.3300
  Os  Os3       1.0  0.66549  0.48676  0.17423  0.3300
  Os  Os4       1.0  0.82127  0.48676  0.32576999999999995  0.3300
  Os  Os5       1.0  0.6654899999999999  0.17873  0.32576999999999995  0.3300
  Os  Os6       1.0  0.51324  0.33451000000000003  0.32576999999999995  0.3300
  Os  Os7       1.0  0.4867600000000001  0.8212700000000001  0.8257699999999999  0.3300
  Os  Os8       1.0  0.17873000000000006  0.66549  0.8257699999999999  0.3300
  Os  Os9       1.0  0.33451000000000003  0.51324  0.8257699999999999  0.3300
  Os  Os10      1.0  0.17873  0.51324  0.67423  0.3300
  Os  Os11      1.0  0.3345100000000001  0.8212700000000001  0.67423  0.3300
  Os  Os12      1.0  0.4867600000000001  0.66549  0.67423  0.3300
