data_image0
_chemical_formula_structural       CaKFO3C
_chemical_formula_sum              "Ca1 K1 F1 O3 C1"
_cell_length_a       5.0968
_cell_length_b       5.0968
_cell_length_c       4.4553
_cell_angle_alpha    90.0
_cell_angle_beta     90.0
_cell_angle_gamma    119.99999999999999

_space_group_name_H-M_alt    "P 1"
_space_group_IT_number       1

loop_
  _space_group_symop_operation_xyz
  'x, y, z'

loop_
  _atom_site_type_symbol
  _atom_site_label
  _atom_site_symmetry_multiplicity
  _atom_site_fract_x
  _atom_site_fract_y
  _atom_site_fract_z
  _atom_site_occupancy
  Ca  Ca1       1.0  0.0  0.0  0.5  1.0000
  K   K1        1.0  0.6667  0.33329999999999993  0.0  1.0000
  F   F1        1.0  0.0  0.0  0.0  1.0000
  O   O1        1.0  0.4789300000000001  0.9579  0.5  1.0000
  O   O2        1.0  0.04210000000000002  0.5210300000000001  0.5  1.0000
  O   O3        1.0  0.47896999999999995  0.5210699999999999  0.5  1.0000
  C   C1        1.0  0.33329999999999993  0.6667  0.5  1.0000
