data_image0
_chemical_formula_structural       Te16Ga12O48
_chemical_formula_sum              "Te16 Ga12 O48"
_cell_length_a       10.5794
_cell_length_b       10.5794
_cell_length_c       10.5794
_cell_angle_alpha    90.0
_cell_angle_beta     90.0
_cell_angle_gamma    90.0

_space_group_name_H-M_alt    "P 1"
_space_group_IT_number       1

loop_
  _space_group_symop_operation_xyz
  'x, y, z'

loop_
  _atom_site_type_symbol
  _atom_site_label
  _atom_site_symmetry_multiplicity
  _atom_site_fract_x
  _atom_site_fract_y
  _atom_site_fract_z
  _atom_site_occupancy
  Te  Te1       1.0  0.10909000000000002  0.3909100000000001  0.60909  1.0000
  Te  Te2       1.0  0.39091000000000004  0.60909  0.10909000000000015  1.0000
  Te  Te3       1.0  0.8909100000000001  0.8909100000000002  0.8909100000000001  1.0000
  Te  Te4       1.0  0.60909  0.10908999999999998  0.39091000000000004  1.0000
  Te  Te5       1.0  0.6409100000000001  0.35909  0.85909  1.0000
  Te  Te6       1.0  0.8590899999999999  0.64091  0.3590900000000002  1.0000
  Te  Te7       1.0  0.1409100000000001  0.14091  0.14091  1.0000
  Te  Te8       1.0  0.35909  0.85909  0.64091  1.0000
  Te  Te9       1.0  0.60909  0.8909100000000002  0.10909000000000015  1.0000
  Te  Te10      1.0  0.8909100000000001  0.10908999999999998  0.60909  1.0000
  Te  Te11      1.0  0.39091000000000004  0.3909100000000001  0.39091000000000004  1.0000
  Te  Te12      1.0  0.10909000000000002  0.60909  0.8909100000000001  1.0000
  Te  Te13      1.0  0.1409100000000001  0.85909  0.3590900000000002  1.0000
  Te  Te14      1.0  0.35909  0.14091  0.85909  1.0000
  Te  Te15      1.0  0.6409100000000001  0.64091  0.64091  1.0000
  Te  Te16      1.0  0.8590899999999999  0.35909  0.14091  1.0000
  Ga  Ga1       1.0  0.0  0.25  0.8750000000000001  0.6700
  Ga  Ga2       1.0  0.5  0.75  0.375  0.6700
  Ga  Ga3       1.0  0.0  0.75  0.625  0.6700
  Ga  Ga4       1.0  0.5  0.25  0.1249999999999999  0.6700
  Ga  Ga5       1.0  0.8750000000000001  0.0  0.25  0.6700
  Ga  Ga6       1.0  0.375  0.5  0.75  0.6700
  Ga  Ga7       1.0  0.625  0.0  0.75  0.6700
  Ga  Ga8       1.0  0.1249999999999999  0.5  0.25  0.6700
  Ga  Ga9       1.0  0.25  0.8750000000000001  0.0  0.6700
  Ga  Ga10      1.0  0.75  0.375  0.5  0.6700
  Ga  Ga11      1.0  0.75  0.625  0.0  0.6700
  Ga  Ga12      1.0  0.25  0.1249999999999999  0.5  0.6700
  O   O1        1.0  0.0854  0.3753  0.7849000000000002  1.0000
  O   O2        1.0  0.4146  0.6247  0.28490000000000015  1.0000
  O   O3        1.0  0.9146  0.8753000000000001  0.7150999999999998  1.0000
  O   O4        1.0  0.5854  0.12469999999999999  0.21509999999999987  1.0000
  O   O5        1.0  0.7849000000000002  0.0854  0.3753  1.0000
  O   O6        1.0  0.28490000000000015  0.4146  0.6247  1.0000
  O   O7        1.0  0.7150999999999998  0.9146  0.8753000000000001  1.0000
  O   O8        1.0  0.21509999999999987  0.5854  0.12469999999999999  1.0000
  O   O9        1.0  0.3753  0.7849000000000002  0.0854  1.0000
  O   O10       1.0  0.6247  0.28490000000000015  0.4146  1.0000
  O   O11       1.0  0.8753000000000001  0.7150999999999998  0.9146  1.0000
  O   O12       1.0  0.12469999999999999  0.21509999999999987  0.5854  1.0000
  O   O13       1.0  0.6253  0.33540000000000003  0.03490000000000015  1.0000
  O   O14       1.0  0.8747  0.6646000000000001  0.5349000000000003  1.0000
  O   O15       1.0  0.12529999999999997  0.1646  0.9651  1.0000
  O   O16       1.0  0.3747  0.8354000000000001  0.46509999999999985  1.0000
  O   O17       1.0  0.33540000000000003  0.03490000000000015  0.6253  1.0000
  O   O18       1.0  0.6646000000000001  0.5349000000000003  0.8747  1.0000
  O   O19       1.0  0.1646  0.9651  0.12529999999999997  1.0000
  O   O20       1.0  0.8354000000000001  0.46509999999999985  0.3747  1.0000
  O   O21       1.0  0.03490000000000015  0.6253  0.33540000000000003  1.0000
  O   O22       1.0  0.5349000000000003  0.8747  0.6646000000000001  1.0000
  O   O23       1.0  0.9651  0.12529999999999997  0.1646  1.0000
  O   O24       1.0  0.46509999999999985  0.3747  0.8354000000000001  1.0000
  O   O25       1.0  0.5854  0.8753000000000001  0.28490000000000015  1.0000
  O   O26       1.0  0.9146  0.12469999999999999  0.7849000000000002  1.0000
  O   O27       1.0  0.4146  0.3753  0.21509999999999987  1.0000
  O   O28       1.0  0.0854  0.6247  0.7150999999999998  1.0000
  O   O29       1.0  0.28490000000000015  0.5854  0.8753000000000001  1.0000
  O   O30       1.0  0.7849000000000002  0.9146  0.12469999999999999  1.0000
  O   O31       1.0  0.21509999999999987  0.4146  0.3753  1.0000
  O   O32       1.0  0.7150999999999998  0.0854  0.6247  1.0000
  O   O33       1.0  0.8753000000000001  0.28490000000000015  0.5854  1.0000
  O   O34       1.0  0.12469999999999999  0.7849000000000002  0.9146  1.0000
  O   O35       1.0  0.3753  0.21509999999999987  0.4146  1.0000
  O   O36       1.0  0.6247  0.7150999999999998  0.0854  1.0000
  O   O37       1.0  0.12529999999999997  0.8354000000000001  0.5349000000000003  1.0000
  O   O38       1.0  0.3747  0.1646  0.03490000000000015  1.0000
  O   O39       1.0  0.6253  0.6646000000000001  0.46509999999999985  1.0000
  O   O40       1.0  0.8747  0.33540000000000003  0.9651  1.0000
  O   O41       1.0  0.8354000000000001  0.5349000000000003  0.12529999999999997  1.0000
  O   O42       1.0  0.1646  0.03490000000000015  0.3747  1.0000
  O   O43       1.0  0.6646000000000001  0.46509999999999985  0.6253  1.0000
  O   O44       1.0  0.33540000000000003  0.9651  0.8747  1.0000
  O   O45       1.0  0.5349000000000003  0.12529999999999997  0.8354000000000001  1.0000
  O   O46       1.0  0.03490000000000015  0.3747  0.1646  1.0000
  O   O47       1.0  0.46509999999999985  0.6253  0.6646000000000001  1.0000
  O   O48       1.0  0.9651  0.8747  0.33540000000000003  1.0000
  Zn  Zn1       1.0  0.0  0.25  0.8750000000000001  0.3300
  Zn  Zn2       1.0  0.5  0.75  0.375  0.3300
  Zn  Zn3       1.0  0.0  0.75  0.625  0.3300
  Zn  Zn4       1.0  0.5  0.25  0.1249999999999999  0.3300
  Zn  Zn5       1.0  0.8750000000000001  0.0  0.25  0.3300
  Zn  Zn6       1.0  0.375  0.5  0.75  0.3300
  Zn  Zn7       1.0  0.625  0.0  0.75  0.3300
  Zn  Zn8       1.0  0.1249999999999999  0.5  0.25  0.3300
  Zn  Zn9       1.0  0.25  0.8750000000000001  0.0  0.3300
  Zn  Zn10      1.0  0.75  0.375  0.5  0.3300
  Zn  Zn11      1.0  0.75  0.625  0.0  0.3300
  Zn  Zn12      1.0  0.25  0.1249999999999999  0.5  0.3300
