data_image0
_chemical_formula_structural       Bi4I18N6C24
_chemical_formula_sum              "Bi4 I18 N6 C24"
_cell_length_a       9.908
_cell_length_b       9.907999999999998
_cell_length_c       23.42
_cell_angle_alpha    90.0
_cell_angle_beta     90.0
_cell_angle_gamma    119.99999999999999

_space_group_name_H-M_alt    "P 1"
_space_group_IT_number       1

loop_
  _space_group_symop_operation_xyz
  'x, y, z'

loop_
  _atom_site_type_symbol
  _atom_site_label
  _atom_site_symmetry_multiplicity
  _atom_site_fract_x
  _atom_site_fract_y
  _atom_site_fract_z
  _atom_site_occupancy
  Bi  Bi1       1.0  0.6667  0.3333  0.18298000000000006  1.0000
  Bi  Bi2       1.0  0.3333  0.6667  0.68298  1.0000
  Bi  Bi3       1.0  0.6667  0.3333  0.9995600000000001  1.0000
  Bi  Bi4       1.0  0.3333  0.6667  0.49956000000000006  1.0000
  I   I1        1.0  0.54083  0.04621  0.09123000000000003  1.0000
  I   I2        1.0  0.9537900000000001  0.49462000000000006  0.09123000000000003  1.0000
  I   I3        1.0  0.50538  0.45916999999999997  0.09123000000000003  1.0000
  I   I4        1.0  0.04621000000000003  0.54083  0.59123  1.0000
  I   I5        1.0  0.49461999999999995  0.9537899999999999  0.59123  1.0000
  I   I6        1.0  0.45917  0.5053799999999999  0.59123  1.0000
  I   I7        1.0  0.3782  0.1695  0.9318600000000002  1.0000
  I   I8        1.0  0.8305  0.20869999999999997  0.9318600000000002  1.0000
  I   I9        1.0  0.7913  0.6218  0.9318600000000002  1.0000
  I   I10       1.0  0.1695  0.3782  0.43186000000000013  1.0000
  I   I11       1.0  0.20869999999999997  0.8305  0.43186000000000013  1.0000
  I   I12       1.0  0.6218  0.7913  0.43186000000000013  1.0000
  I   I13       1.0  0.3782  0.1693  0.25072  1.0000
  I   I14       1.0  0.8307000000000001  0.2089  0.25072  1.0000
  I   I15       1.0  0.7911000000000001  0.6218  0.25072  1.0000
  I   I16       1.0  0.16930000000000003  0.3782  0.75072  1.0000
  I   I17       1.0  0.20890000000000003  0.8307000000000001  0.75072  1.0000
  I   I18       1.0  0.6218  0.7911000000000001  0.75072  1.0000
  N   N1        1.0  0.3333  0.6667000000000001  0.9342000000000001  1.0000
  N   N2        1.0  0.6667000000000002  0.3333  0.43420000000000003  1.0000
  N   N3        1.0  0.6667  0.3333  0.7526000000000002  1.0000
  N   N4        1.0  0.3333  0.6667  0.25260000000000016  1.0000
  N   N5        1.0  0.0  0.0  0.0944  1.0000
  N   N6        1.0  0.0  0.0  0.5944  1.0000
  C   C1        1.0  0.485  0.7969999999999999  0.9184  1.0000
  C   C2        1.0  0.20300000000000004  0.688  0.9184  1.0000
  C   C3        1.0  0.31200000000000006  0.515  0.9184  1.0000
  C   C4        1.0  0.7969999999999999  0.485  0.4184  1.0000
  C   C5        1.0  0.688  0.203  0.4184  1.0000
  C   C6        1.0  0.515  0.31200000000000006  0.4184  1.0000
  C   C7        1.0  0.3333  0.6667000000000001  0.9966  1.0000
  C   C8        1.0  0.6667000000000002  0.3333  0.49660000000000004  1.0000
  C   C9        1.0  0.798  0.48100000000000004  0.77  1.0000
  C   C10       1.0  0.519  0.317  0.77  1.0000
  C   C11       1.0  0.683  0.20199999999999999  0.77  1.0000
  C   C12       1.0  0.4810000000000001  0.798  0.2700000000000001  1.0000
  C   C13       1.0  0.317  0.5189999999999999  0.2700000000000001  1.0000
  C   C14       1.0  0.20199999999999996  0.683  0.2700000000000001  1.0000
  C   C15       1.0  0.6667  0.3333  0.6905000000000002  1.0000
  C   C16       1.0  0.3333  0.6667  0.19050000000000014  1.0000
  C   C17       1.0  0.13100000000000006  0.9780000000000001  0.10910000000000003  1.0000
  C   C18       1.0  0.022  0.15300000000000002  0.10910000000000003  1.0000
  C   C19       1.0  0.8470000000000001  0.8690000000000001  0.10910000000000003  1.0000
  C   C20       1.0  0.9780000000000001  0.131  0.6091  1.0000
  C   C21       1.0  0.15300000000000005  0.022  0.6091  1.0000
  C   C22       1.0  0.8690000000000001  0.8470000000000001  0.6091  1.0000
  C   C23       1.0  0.0  0.0  0.0323  1.0000
  C   C24       1.0  0.0  0.0  0.5323  1.0000
