data_image0
_chemical_formula_structural       Pb8Pt4O16
_chemical_formula_sum              "Pb8 Pt4 O16"
_cell_length_a       9.115
_cell_length_b       7.941
_cell_length_c       6.306
_cell_angle_alpha    90.0
_cell_angle_beta     90.0
_cell_angle_gamma    90.0

_space_group_name_H-M_alt    "P 1"
_space_group_IT_number       1

loop_
  _space_group_symop_operation_xyz
  'x, y, z'

loop_
  _atom_site_type_symbol
  _atom_site_label
  _atom_site_symmetry_multiplicity
  _atom_site_fract_x
  _atom_site_fract_y
  _atom_site_fract_z
  _atom_site_occupancy
  Pb  Pb1       1.0  0.3273  0.10930000000000002  0.0  1.0000
  Pb  Pb2       1.0  0.6727000000000001  0.8907000000000002  0.0  1.0000
  Pb  Pb3       1.0  0.8272999999999999  0.39070000000000005  0.0  1.0000
  Pb  Pb4       1.0  0.17270000000000002  0.6093  0.0  1.0000
  Pb  Pb5       1.0  0.8435  0.6399000000000002  0.5  1.0000
  Pb  Pb6       1.0  0.15649999999999997  0.36009999999999986  0.5  1.0000
  Pb  Pb7       1.0  0.34350000000000014  0.8601  0.5  1.0000
  Pb  Pb8       1.0  0.6565  0.13990000000000014  0.5  1.0000
  Pt  Pt1       1.0  0.0  0.0  0.251  1.0000
  Pt  Pt2       1.0  0.5  0.5  0.7490000000000001  1.0000
  Pt  Pt3       1.0  0.0  0.0  0.7490000000000001  1.0000
  Pt  Pt4       1.0  0.5  0.5  0.251  1.0000
  O   O1        1.0  0.169  0.16800000000000007  0.247  1.0000
  O   O2        1.0  0.831  0.8320000000000001  0.247  1.0000
  O   O3        1.0  0.669  0.33199999999999996  0.753  1.0000
  O   O4        1.0  0.33099999999999996  0.668  0.753  1.0000
  O   O5        1.0  0.831  0.8320000000000001  0.753  1.0000
  O   O6        1.0  0.169  0.16800000000000007  0.753  1.0000
  O   O7        1.0  0.33099999999999996  0.668  0.247  1.0000
  O   O8        1.0  0.669  0.33199999999999996  0.247  1.0000
  O   O9        1.0  0.9079999999999999  0.129  0.5  1.0000
  O   O10       1.0  0.092  0.8710000000000001  0.5  1.0000
  O   O11       1.0  0.40800000000000003  0.371  0.5  1.0000
  O   O12       1.0  0.592  0.629  0.5  1.0000
  O   O13       1.0  0.8900000000000001  0.11000000000000003  0.0  1.0000
  O   O14       1.0  0.11  0.8900000000000001  0.0  1.0000
  O   O15       1.0  0.39  0.39  0.0  1.0000
  O   O16       1.0  0.61  0.6100000000000001  0.0  1.0000
