data_image0
_chemical_formula_structural       Rb4Si16O32
_chemical_formula_sum              "Rb4 Si16 O32"
_cell_length_a       8.82
_cell_length_b       12.992
_cell_length_c       7.161
_cell_angle_alpha    90.0
_cell_angle_beta     116.4
_cell_angle_gamma    90.0

_space_group_name_H-M_alt    "P 1"
_space_group_IT_number       1

loop_
  _space_group_symop_operation_xyz
  'x, y, z'

loop_
  _atom_site_type_symbol
  _atom_site_label
  _atom_site_symmetry_multiplicity
  _atom_site_fract_x
  _atom_site_fract_y
  _atom_site_fract_z
  _atom_site_occupancy
  Rb  Rb1       1.0  0.2958  0.0  0.1468  1.0000
  Rb  Rb2       1.0  0.7041999999999998  0.0  0.8532000000000001  1.0000
  Rb  Rb3       1.0  0.7958000000000001  0.49999999999999994  0.1468  1.0000
  Rb  Rb4       1.0  0.20420000000000005  0.49999999999999994  0.8532000000000001  1.0000
  Si  Si1       1.0  0.010400000000000003  0.19039999999999996  0.2227  0.7500
  Si  Si2       1.0  0.010400000000000003  0.8096  0.2227  0.7500
  Si  Si3       1.0  0.9896  0.8096  0.7773  0.7500
  Si  Si4       1.0  0.9896  0.19039999999999996  0.7773  0.7500
  Si  Si5       1.0  0.5104  0.6903999999999999  0.2227  0.7500
  Si  Si6       1.0  0.5104  0.30959999999999993  0.2227  0.7500
  Si  Si7       1.0  0.4896  0.30959999999999993  0.7773  0.7500
  Si  Si8       1.0  0.4896  0.6903999999999999  0.7773  0.7500
  Si  Si9       1.0  0.7227  0.1195  0.344  0.7500
  Si  Si10      1.0  0.7227  0.8805  0.344  0.7500
  Si  Si11      1.0  0.2773  0.8805  0.656  0.7500
  Si  Si12      1.0  0.2773  0.1195  0.656  0.7500
  Si  Si13      1.0  0.2227000000000001  0.6194999999999999  0.344  0.7500
  Si  Si14      1.0  0.2227000000000001  0.38049999999999995  0.344  0.7500
  Si  Si15      1.0  0.7773  0.38049999999999995  0.656  0.7500
  Si  Si16      1.0  0.7773  0.6194999999999999  0.656  0.7500
  O   O1        1.0  0.0  0.1525  0.0  1.0000
  O   O2        1.0  0.0  0.8474999999999999  0.0  1.0000
  O   O3        1.0  0.5  0.6525  0.0  1.0000
  O   O4        1.0  0.5  0.3475  0.0  1.0000
  O   O5        1.0  0.664  0.0  0.283  1.0000
  O   O6        1.0  0.3359999999999999  0.0  0.717  1.0000
  O   O7        1.0  0.16400000000000015  0.49999999999999994  0.283  1.0000
  O   O8        1.0  0.8359999999999999  0.49999999999999994  0.717  1.0000
  O   O9        1.0  0.832  0.15959999999999994  0.226  1.0000
  O   O10       1.0  0.832  0.8403999999999999  0.226  1.0000
  O   O11       1.0  0.16800000000000004  0.8403999999999999  0.774  1.0000
  O   O12       1.0  0.16800000000000004  0.15959999999999994  0.774  1.0000
  O   O13       1.0  0.33199999999999985  0.6596  0.226  1.0000
  O   O14       1.0  0.33199999999999985  0.34040000000000004  0.226  1.0000
  O   O15       1.0  0.668  0.34040000000000004  0.774  1.0000
  O   O16       1.0  0.668  0.6596  0.774  1.0000
  O   O17       1.0  0.0464  0.3145  0.263  1.0000
  O   O18       1.0  0.0464  0.6855  0.263  1.0000
  O   O19       1.0  0.9536  0.6855  0.737  1.0000
  O   O20       1.0  0.9536  0.3145  0.737  1.0000
  O   O21       1.0  0.5464  0.8144999999999999  0.263  1.0000
  O   O22       1.0  0.5464  0.1855  0.263  1.0000
  O   O23       1.0  0.4536  0.1855  0.737  1.0000
  O   O24       1.0  0.4536  0.8144999999999999  0.737  1.0000
  O   O25       1.0  0.16819999999999993  0.1283  0.403  1.0000
  O   O26       1.0  0.16819999999999993  0.8717  0.403  1.0000
  O   O27       1.0  0.8318000000000001  0.8717  0.597  1.0000
  O   O28       1.0  0.8318000000000001  0.1283  0.597  1.0000
  O   O29       1.0  0.6681999999999999  0.6282999999999999  0.403  1.0000
  O   O30       1.0  0.6681999999999999  0.3717  0.403  1.0000
  O   O31       1.0  0.33180000000000004  0.3717  0.597  1.0000
  O   O32       1.0  0.33180000000000004  0.6282999999999999  0.597  1.0000
  Al  Al1       1.0  0.010400000000000003  0.19039999999999996  0.2227  0.2500
  Al  Al2       1.0  0.010400000000000003  0.8096  0.2227  0.2500
  Al  Al3       1.0  0.9896  0.8096  0.7773  0.2500
  Al  Al4       1.0  0.9896  0.19039999999999996  0.7773  0.2500
  Al  Al5       1.0  0.5104  0.6903999999999999  0.2227  0.2500
  Al  Al6       1.0  0.5104  0.30959999999999993  0.2227  0.2500
  Al  Al7       1.0  0.4896  0.30959999999999993  0.7773  0.2500
  Al  Al8       1.0  0.4896  0.6903999999999999  0.7773  0.2500
  Al  Al9       1.0  0.7227  0.1195  0.344  0.2500
  Al  Al10      1.0  0.7227  0.8805  0.344  0.2500
  Al  Al11      1.0  0.2773  0.8805  0.656  0.2500
  Al  Al12      1.0  0.2773  0.1195  0.656  0.2500
  Al  Al13      1.0  0.2227000000000001  0.6194999999999999  0.344  0.2500
  Al  Al14      1.0  0.2227000000000001  0.38049999999999995  0.344  0.2500
  Al  Al15      1.0  0.7773  0.38049999999999995  0.656  0.2500
  Al  Al16      1.0  0.7773  0.6194999999999999  0.656  0.2500
