data_image0
_chemical_formula_structural       Cs4S4O12
_chemical_formula_sum              "Cs4 S4 O12"
_cell_length_a       6.326
_cell_length_b       6.326
_cell_length_c       11.535
_cell_angle_alpha    90.0
_cell_angle_beta     90.0
_cell_angle_gamma    119.99999999999999

_space_group_name_H-M_alt    "P 1"
_space_group_IT_number       1

loop_
  _space_group_symop_operation_xyz
  'x, y, z'

loop_
  _atom_site_type_symbol
  _atom_site_label
  _atom_site_symmetry_multiplicity
  _atom_site_fract_x
  _atom_site_fract_y
  _atom_site_fract_z
  _atom_site_occupancy
  Cs  Cs1       1.0  0.0  0.0  0.0  1.0000
  Cs  Cs2       1.0  0.0  0.0  0.5  1.0000
  Cs  Cs3       1.0  0.3333  0.6667  0.25  1.0000
  Cs  Cs4       1.0  0.6667  0.3333  0.7500000000000001  1.0000
  S   S1        1.0  0.3333  0.6667  0.7300000000000001  1.0000
  S   S2        1.0  0.3333  0.6667  0.77  1.0000
  S   S3        1.0  0.6667  0.3333  0.23  1.0000
  S   S4        1.0  0.6667  0.3333  0.2699999999999999  1.0000
  O   O1        1.0  0.43999999999999995  0.3333  0.125  1.0000
  O   O2        1.0  0.6667  0.10669999999999996  0.125  1.0000
  O   O3        1.0  0.8933  0.56  0.125  1.0000
  O   O4        1.0  0.43999999999999995  0.3333  0.37500000000000006  1.0000
  O   O5        1.0  0.6667  0.10669999999999996  0.37500000000000006  1.0000
  O   O6        1.0  0.8933  0.56  0.37500000000000006  1.0000
  O   O7        1.0  0.3333  0.43999999999999995  0.625  1.0000
  O   O8        1.0  0.10669999999999996  0.6667000000000001  0.625  1.0000
  O   O9        1.0  0.56  0.8933  0.625  1.0000
  O   O10       1.0  0.3333  0.43999999999999995  0.8750000000000001  1.0000
  O   O11       1.0  0.10669999999999996  0.6667000000000001  0.8750000000000001  1.0000
  O   O12       1.0  0.56  0.8933  0.8750000000000001  1.0000
