data_image0
_chemical_formula_structural       Te2Fe4
_chemical_formula_sum              "Te2 Fe4"
_cell_length_a       3.8197
_cell_length_b       3.8197
_cell_length_c       6.2587
_cell_angle_alpha    90.0
_cell_angle_beta     90.0
_cell_angle_gamma    90.0

_space_group_name_H-M_alt    "P 1"
_space_group_IT_number       1

loop_
  _space_group_symop_operation_xyz
  'x, y, z'

loop_
  _atom_site_type_symbol
  _atom_site_label
  _atom_site_symmetry_multiplicity
  _atom_site_fract_x
  _atom_site_fract_y
  _atom_site_fract_z
  _atom_site_occupancy
  Te  Te1       1.0  0.25  0.25  0.21691  1.0000
  Te  Te2       1.0  0.75  0.75  0.78309  1.0000
  Fe  Fe1       1.0  0.75  0.25  0.4999999999999999  1.0000
  Fe  Fe2       1.0  0.25  0.75  0.4999999999999999  1.0000
  Fe  Fe3       1.0  0.25  0.25  0.7809999999999999  0.1190
  Fe  Fe4       1.0  0.75  0.75  0.21900000000000006  0.1190
