data_image0
_chemical_formula_structural       Mo12P36O108
_chemical_formula_sum              "Mo12 P36 O108"
_cell_length_a       10.819
_cell_length_b       19.515
_cell_length_c       9.609
_cell_angle_alpha    90.0
_cell_angle_beta     97.74
_cell_angle_gamma    90.0

_space_group_name_H-M_alt    "P 1"
_space_group_IT_number       1

loop_
  _space_group_symop_operation_xyz
  'x, y, z'

loop_
  _atom_site_type_symbol
  _atom_site_label
  _atom_site_symmetry_multiplicity
  _atom_site_fract_x
  _atom_site_fract_y
  _atom_site_fract_z
  _atom_site_occupancy
  Mo  Mo1       1.0  0.0  0.17096000000000006  0.0  1.0000
  Mo  Mo2       1.0  0.5  0.82904  0.0  1.0000
  Mo  Mo3       1.0  0.5  0.67096  0.5  1.0000
  Mo  Mo4       1.0  0.0  0.32904  0.5  1.0000
  Mo  Mo5       1.0  0.50301  0.16133000000000006  0.00075  1.0000
  Mo  Mo6       1.0  0.0030099999999999567  0.8386700000000001  0.00075  1.0000
  Mo  Mo7       1.0  0.00300999999999995  0.6613300000000001  0.50075  1.0000
  Mo  Mo8       1.0  0.50301  0.33866999999999997  0.50075  1.0000
  Mo  Mo9       1.0  0.48049  0.99422  0.51493  1.0000
  Mo  Mo10      1.0  0.9804899999999999  0.005780000000000008  0.51493  1.0000
  Mo  Mo11      1.0  0.9804899999999999  0.49421999999999994  0.01493000000000011  1.0000
  Mo  Mo12      1.0  0.48049  0.50578  0.01493000000000011  1.0000
  P   P1        1.0  0.13456999999999994  0.11402  0.3205  1.0000
  P   P2        1.0  0.63457  0.88598  0.3205  1.0000
  P   P3        1.0  0.63457  0.6140200000000001  0.8205  1.0000
  P   P4        1.0  0.13456999999999997  0.38598  0.8205  1.0000
  P   P5        1.0  0.34400999999999987  0.11293000000000003  0.6931799999999998  1.0000
  P   P6        1.0  0.8440099999999999  0.8870700000000001  0.6931799999999998  1.0000
  P   P7        1.0  0.8440099999999999  0.6129300000000001  0.19317999999999988  1.0000
  P   P8        1.0  0.3440099999999999  0.38706999999999997  0.19317999999999988  1.0000
  P   P9        1.0  0.13263  0.053950000000000005  0.82716  1.0000
  P   P10       1.0  0.63263  0.9460500000000001  0.82716  1.0000
  P   P11       1.0  0.63263  0.5539500000000002  0.3271600000000001  1.0000
  P   P12       1.0  0.13263  0.44605  0.3271600000000001  1.0000
  P   P13       1.0  0.72401  0.10814000000000003  0.5176  1.0000
  P   P14       1.0  0.22401000000000001  0.8918600000000001  0.5176  1.0000
  P   P15       1.0  0.22401000000000001  0.60814  0.017599999999999838  1.0000
  P   P16       1.0  0.72401  0.39186000000000004  0.017599999999999838  1.0000
  P   P17       1.0  0.34834  0.05238000000000001  0.19737  1.0000
  P   P18       1.0  0.8483399999999999  0.94762  0.19737  1.0000
  P   P19       1.0  0.8483399999999999  0.55238  0.69737  1.0000
  P   P20       1.0  0.34834  0.4476200000000001  0.69737  1.0000
  P   P21       1.0  0.64779  0.22342000000000004  0.31077  1.0000
  P   P22       1.0  0.1477900000000001  0.77658  0.31077  1.0000
  P   P23       1.0  0.1477900000000001  0.7234200000000001  0.81077  1.0000
  P   P24       1.0  0.64779  0.27657999999999994  0.81077  1.0000
  P   P25       1.0  0.8591799999999999  0.21809  0.6847999999999999  1.0000
  P   P26       1.0  0.35917999999999983  0.78191  0.6847999999999999  1.0000
  P   P27       1.0  0.35917999999999983  0.7180900000000001  0.18479999999999985  1.0000
  P   P28       1.0  0.8591800000000002  0.28191000000000005  0.18479999999999985  1.0000
  P   P29       1.0  0.26594  0.22652  0.49089999999999995  1.0000
  P   P30       1.0  0.7659400000000001  0.77348  0.49089999999999995  1.0000
  P   P31       1.0  0.7659400000000001  0.7265200000000002  0.9908999999999999  1.0000
  P   P32       1.0  0.26594  0.27348  0.9908999999999999  1.0000
  P   P33       1.0  0.75198  0.060200000000000004  0.9964999999999999  1.0000
  P   P34       1.0  0.25198000000000004  0.9398000000000001  0.9964999999999999  1.0000
  P   P35       1.0  0.2519800000000001  0.5602  0.4965  1.0000
  P   P36       1.0  0.75198  0.43979999999999997  0.4965  1.0000
  O   O1        1.0  0.8906  0.25320000000000004  0.0504  1.0000
  O   O2        1.0  0.3906  0.7468  0.0504  1.0000
  O   O3        1.0  0.3906  0.7532000000000001  0.5503999999999999  1.0000
  O   O4        1.0  0.8906  0.2468  0.5503999999999999  1.0000
  O   O5        1.0  0.9658999999999999  0.19430000000000003  0.7883999999999999  1.0000
  O   O6        1.0  0.4659  0.8057  0.7883999999999999  1.0000
  O   O7        1.0  0.4659  0.6943000000000001  0.28839999999999977  1.0000
  O   O8        1.0  0.9658999999999999  0.30569999999999997  0.28839999999999977  1.0000
  O   O9        1.0  0.8379  0.11300000000000002  0.9548999999999999  1.0000
  O   O10       1.0  0.33789999999999987  0.8870000000000001  0.9548999999999999  1.0000
  O   O11       1.0  0.33789999999999987  0.613  0.45489999999999997  1.0000
  O   O12       1.0  0.8379  0.38700000000000007  0.45489999999999997  1.0000
  O   O13       1.0  0.10429999999999999  0.08510000000000001  0.9599  1.0000
  O   O14       1.0  0.6043  0.9149000000000002  0.9599  1.0000
  O   O15       1.0  0.6043  0.5851  0.4599  1.0000
  O   O16       1.0  0.10429999999999999  0.4149  0.4599  1.0000
  O   O17       1.0  0.1528  0.238  0.024699999999999993  1.0000
  O   O18       1.0  0.6528  0.762  0.024699999999999993  1.0000
  O   O19       1.0  0.6528  0.738  0.5246999999999999  1.0000
  O   O20       1.0  0.1528  0.262  0.5246999999999999  1.0000
  O   O21       1.0  0.036199999999999996  0.14270000000000005  0.2132  1.0000
  O   O22       1.0  0.5362  0.8573000000000001  0.2132  1.0000
  O   O23       1.0  0.5362  0.6427000000000002  0.7132000000000001  1.0000
  O   O24       1.0  0.036199999999999996  0.3573  0.7132000000000001  1.0000
  O   O25       1.0  0.5501  0.21490000000000004  0.1877  1.0000
  O   O26       1.0  0.05010000000000003  0.7850999999999999  0.1877  1.0000
  O   O27       1.0  0.05010000000000003  0.7149000000000002  0.6877  1.0000
  O   O28       1.0  0.5501  0.28509999999999996  0.6877  1.0000
  O   O29       1.0  0.36699999999999994  0.23280000000000003  0.9416999999999999  1.0000
  O   O30       1.0  0.867  0.7672000000000001  0.9416999999999999  1.0000
  O   O31       1.0  0.867  0.7328  0.4416999999999999  1.0000
  O   O32       1.0  0.36699999999999994  0.2672  0.4416999999999999  1.0000
  O   O33       1.0  0.6321  0.2191  0.9074999999999999  1.0000
  O   O34       1.0  0.13209999999999986  0.7809000000000001  0.9074999999999999  1.0000
  O   O35       1.0  0.13209999999999988  0.7191  0.4075  1.0000
  O   O36       1.0  0.6321  0.2809000000000001  0.4075  1.0000
  O   O37       1.0  0.6346  0.08260000000000002  0.0476  1.0000
  O   O38       1.0  0.13460000000000005  0.9174000000000001  0.0476  1.0000
  O   O39       1.0  0.13460000000000003  0.5826  0.5475999999999999  1.0000
  O   O40       1.0  0.6346  0.41740000000000005  0.5475999999999999  1.0000
  O   O41       1.0  0.3701999999999999  0.10830000000000001  0.09989999999999999  1.0000
  O   O42       1.0  0.8701999999999998  0.8916999999999999  0.09989999999999999  1.0000
  O   O43       1.0  0.8701999999999998  0.6083000000000001  0.5999  1.0000
  O   O44       1.0  0.3701999999999999  0.3917  0.5999  1.0000
  O   O45       1.0  0.4490999999999999  0.11380000000000001  0.8089999999999998  1.0000
  O   O46       1.0  0.9490999999999998  0.8862  0.8089999999999998  1.0000
  O   O47       1.0  0.9490999999999998  0.6138000000000001  0.30899999999999994  1.0000
  O   O48       1.0  0.4490999999999999  0.3862  0.30899999999999994  1.0000
  O   O49       1.0  0.6278  0.062300000000000015  0.5628999999999998  1.0000
  O   O50       1.0  0.12780000000000014  0.9377  0.5628999999999998  1.0000
  O   O51       1.0  0.12780000000000014  0.5623  0.06289999999999996  1.0000
  O   O52       1.0  0.6278  0.43770000000000003  0.06289999999999996  1.0000
  O   O53       1.0  0.4462  0.0395  0.3182  1.0000
  O   O54       1.0  0.9461999999999998  0.9605  0.3182  1.0000
  O   O55       1.0  0.9461999999999998  0.5395  0.8182  1.0000
  O   O56       1.0  0.4462  0.4605000000000001  0.8182  1.0000
  O   O57       1.0  0.5224  0.9636  0.7247999999999999  1.0000
  O   O58       1.0  0.022399999999999972  0.0364  0.7247999999999999  1.0000
  O   O59       1.0  0.022399999999999972  0.46360000000000007  0.22479999999999986  1.0000
  O   O60       1.0  0.5224  0.5364  0.22479999999999986  1.0000
  O   O61       1.0  0.5926  0.9182000000000001  0.44559999999999994  1.0000
  O   O62       1.0  0.0926  0.08180000000000001  0.44559999999999994  1.0000
  O   O63       1.0  0.09259999999999999  0.4182  0.9455999999999999  1.0000
  O   O64       1.0  0.5926  0.5818000000000001  0.9455999999999999  1.0000
  O   O65       1.0  0.352  0.061900000000000004  0.5803  1.0000
  O   O66       1.0  0.852  0.9381  0.5803  1.0000
  O   O67       1.0  0.852  0.5619  0.08030000000000004  1.0000
  O   O68       1.0  0.352  0.43810000000000004  0.08030000000000004  1.0000
  O   O69       1.0  0.3382  0.9218000000000001  0.4736  1.0000
  O   O70       1.0  0.8382000000000001  0.07820000000000002  0.4736  1.0000
  O   O71       1.0  0.8382000000000001  0.4218  0.9735999999999999  1.0000
  O   O72       1.0  0.3382  0.5782  0.9735999999999999  1.0000
  O   O73       1.0  0.21629999999999996  0.0604  0.2492  1.0000
  O   O74       1.0  0.7163  0.9396  0.2492  1.0000
  O   O75       1.0  0.7162999999999999  0.5604  0.7492  1.0000
  O   O76       1.0  0.21629999999999996  0.43960000000000005  0.7492  1.0000
  O   O77       1.0  0.2354  0.171  0.3725  1.0000
  O   O78       1.0  0.7354  0.829  0.3725  1.0000
  O   O79       1.0  0.7354  0.671  0.8725  1.0000
  O   O80       1.0  0.2354  0.32899999999999996  0.8725  1.0000
  O   O81       1.0  0.3251  0.18660000000000004  0.6278999999999998  1.0000
  O   O82       1.0  0.8251  0.8134000000000001  0.6278999999999998  1.0000
  O   O83       1.0  0.8251  0.6866  0.1278999999999999  1.0000
  O   O84       1.0  0.3251  0.31340000000000007  0.1278999999999999  1.0000
  O   O85       1.0  0.2165  0.1048  0.7544  1.0000
  O   O86       1.0  0.7165  0.8952  0.7544  1.0000
  O   O87       1.0  0.7165  0.6048000000000001  0.25439999999999996  1.0000
  O   O88       1.0  0.2165  0.39520000000000005  0.25439999999999996  1.0000
  O   O89       1.0  0.2226  0.9898000000000001  0.8662  1.0000
  O   O90       1.0  0.7226  0.0102  0.8662  1.0000
  O   O91       1.0  0.7226  0.48980000000000007  0.3662000000000001  1.0000
  O   O92       1.0  0.2226  0.5102  0.3662000000000001  1.0000
  O   O93       1.0  0.6581999999999999  0.1538  0.3944  1.0000
  O   O94       1.0  0.1581999999999999  0.8462000000000001  0.3944  1.0000
  O   O95       1.0  0.15819999999999987  0.6537999999999999  0.8943999999999999  1.0000
  O   O96       1.0  0.6581999999999998  0.3462  0.8943999999999999  1.0000
  O   O97       1.0  0.7585  0.1599  0.6472999999999999  1.0000
  O   O98       1.0  0.25849999999999995  0.8401000000000002  0.6472999999999999  1.0000
  O   O99       1.0  0.25849999999999995  0.6598999999999999  0.1473  1.0000
  O   O100      1.0  0.7585  0.3401  0.1473  1.0000
  O   O101      1.0  0.3303  0.9826  0.11609999999999998  1.0000
  O   O102      1.0  0.8303  0.017400000000000002  0.11609999999999998  1.0000
  O   O103      1.0  0.8302999999999998  0.48260000000000003  0.6161  1.0000
  O   O104      1.0  0.3303  0.5174  0.6161  1.0000
  O   O105      1.0  0.781  0.2728000000000001  0.7586  1.0000
  O   O106      1.0  0.28100000000000014  0.7272  0.7586  1.0000
  O   O107      1.0  0.28100000000000014  0.7728000000000002  0.25859999999999994  1.0000
  O   O108      1.0  0.781  0.22719999999999996  0.25859999999999994  1.0000
