data_image0
_chemical_formula_structural       S6O6C12
_chemical_formula_sum              "S6 O6 C12"
_cell_length_a       8.53
_cell_length_b       8.53
_cell_length_c       20.37
_cell_angle_alpha    90.0
_cell_angle_beta     90.0
_cell_angle_gamma    119.99999999999999

_space_group_name_H-M_alt    "P 1"
_space_group_IT_number       1

loop_
  _space_group_symop_operation_xyz
  'x, y, z'

loop_
  _atom_site_type_symbol
  _atom_site_label
  _atom_site_symmetry_multiplicity
  _atom_site_fract_x
  _atom_site_fract_y
  _atom_site_fract_z
  _atom_site_occupancy
  S   S1        1.0  0.2012999999999999  0.7986999999999997  0.91667  1.0000
  S   S2        1.0  0.7987000000000001  0.20130000000000012  0.41666999999999993  1.0000
  S   S3        1.0  0.40260000000000007  0.20130000000000012  0.08333000000000002  1.0000
  S   S4        1.0  0.5973999999999999  0.7986999999999997  0.58333  1.0000
  S   S5        1.0  0.20129999999999995  0.40260000000000007  0.24999666666666664  1.0000
  S   S6        1.0  0.7987000000000001  0.5973999999999998  0.7499966666666666  1.0000
  O   O1        1.0  0.5010000000000002  0.501  0.66667  1.0000
  O   O2        1.0  0.4989999999999999  0.49899999999999994  0.16666999999999987  1.0000
  O   O3        1.0  9.78945985106115e-17  0.49899999999999994  0.33333  1.0000
  O   O4        1.0  0.9999999999999999  0.501  0.83333  1.0000
  O   O5        1.0  0.5010000000000002  1.1102230246251564e-16  0.49999666666666664  1.0000
  O   O6        1.0  0.4989999999999998  0.9999999999999998  0.9999966666666666  1.0000
  C   C1        1.0  0.492  0.09799999999999998  0.0379  0.9700
  C   C2        1.0  0.508  0.902  0.5379  0.9700
  C   C3        1.0  0.902  0.508  0.7954333333333333  0.9700
  C   C4        1.0  0.09799999999999996  0.49199999999999994  0.2954333333333333  0.9700
  C   C5        1.0  0.394  0.902  0.9621  0.9700
  C   C6        1.0  0.6060000000000001  0.09799999999999998  0.46210000000000007  0.9700
  C   C7        1.0  0.492  0.39399999999999996  0.12876666666666664  0.9700
  C   C8        1.0  0.508  0.606  0.6287666666666666  0.9700
  C   C9        1.0  0.902  0.39399999999999996  0.3712333333333333  0.9700
  C   C10       1.0  0.098  0.606  0.8712333333333334  0.9700
  C   C11       1.0  0.39399999999999996  0.49199999999999994  0.20456666666666667  0.9700
  C   C12       1.0  0.6060000000000001  0.508  0.7045666666666667  0.9700
