data_image0
_chemical_formula_structural       U64O336
_chemical_formula_sum              "U64 O336"
_cell_length_a       19.343
_cell_length_b       20.8
_cell_length_c       34.866
_cell_angle_alpha    90.0
_cell_angle_beta     90.0
_cell_angle_gamma    90.0

_space_group_name_H-M_alt    "P 1"
_space_group_IT_number       1

loop_
  _space_group_symop_operation_xyz
  'x, y, z'

loop_
  _atom_site_type_symbol
  _atom_site_label
  _atom_site_symmetry_multiplicity
  _atom_site_fract_x
  _atom_site_fract_y
  _atom_site_fract_z
  _atom_site_occupancy
  U   U1        1.0  0.0  0.33733  0.12114999999999998  1.0000
  U   U2        1.0  0.0  0.66267  0.12114999999999998  1.0000
  U   U3        1.0  0.0  0.33733  0.87885  1.0000
  U   U4        1.0  0.0  0.66267  0.87885  1.0000
  U   U5        1.0  0.5  0.83733  0.6211499999999999  1.0000
  U   U6        1.0  0.5  0.16266999999999998  0.6211499999999999  1.0000
  U   U7        1.0  0.5  0.83733  0.37885  1.0000
  U   U8        1.0  0.5  0.16266999999999998  0.37885  1.0000
  U   U9        1.0  0.0  0.20352  0.20225  1.0000
  U   U10       1.0  0.0  0.7964799999999999  0.20225  1.0000
  U   U11       1.0  0.0  0.20352  0.79775  1.0000
  U   U12       1.0  0.0  0.7964799999999999  0.79775  1.0000
  U   U13       1.0  0.5  0.70352  0.70225  1.0000
  U   U14       1.0  0.5  0.29647999999999997  0.70225  1.0000
  U   U15       1.0  0.5  0.70352  0.29774999999999996  1.0000
  U   U16       1.0  0.5  0.29647999999999997  0.29774999999999996  1.0000
  U   U17       1.0  0.18269  0.33458999999999994  0.0555  1.0000
  U   U18       1.0  0.81731  0.66541  0.0555  1.0000
  U   U19       1.0  0.81731  0.33458999999999994  0.9445  1.0000
  U   U20       1.0  0.18269  0.66541  0.9445  1.0000
  U   U21       1.0  0.6826900000000001  0.8345899999999999  0.5555  1.0000
  U   U22       1.0  0.31731  0.16541000000000006  0.5555  1.0000
  U   U23       1.0  0.31731  0.8345899999999999  0.4445  1.0000
  U   U24       1.0  0.6826900000000001  0.16541000000000006  0.4445  1.0000
  U   U25       1.0  0.81731  0.66541  0.9445  1.0000
  U   U26       1.0  0.18269  0.33458999999999994  0.9445  1.0000
  U   U27       1.0  0.18269  0.66541  0.0555  1.0000
  U   U28       1.0  0.81731  0.33458999999999994  0.0555  1.0000
  U   U29       1.0  0.31731  0.16541000000000006  0.4445  1.0000
  U   U30       1.0  0.6826900000000001  0.8345899999999999  0.4445  1.0000
  U   U31       1.0  0.6826900000000001  0.16541000000000006  0.5555  1.0000
  U   U32       1.0  0.31731  0.8345899999999999  0.5555  1.0000
  U   U33       1.0  0.18262000000000003  0.09303  0.19967  1.0000
  U   U34       1.0  0.8173800000000001  0.90697  0.19967  1.0000
  U   U35       1.0  0.8173800000000001  0.09303  0.8003299999999999  1.0000
  U   U36       1.0  0.18262000000000003  0.90697  0.8003299999999999  1.0000
  U   U37       1.0  0.68262  0.59303  0.69967  1.0000
  U   U38       1.0  0.31738  0.40696999999999994  0.69967  1.0000
  U   U39       1.0  0.31738  0.59303  0.30033  1.0000
  U   U40       1.0  0.68262  0.40696999999999994  0.30033  1.0000
  U   U41       1.0  0.8173800000000001  0.90697  0.8003299999999999  1.0000
  U   U42       1.0  0.18262000000000003  0.09303  0.8003299999999999  1.0000
  U   U43       1.0  0.18262000000000003  0.90697  0.19967  1.0000
  U   U44       1.0  0.8173800000000001  0.09303  0.19967  1.0000
  U   U45       1.0  0.31738  0.40696999999999994  0.30033  1.0000
  U   U46       1.0  0.68262  0.59303  0.30033  1.0000
  U   U47       1.0  0.68262  0.40696999999999994  0.69967  1.0000
  U   U48       1.0  0.31738  0.59303  0.69967  1.0000
  U   U49       1.0  0.30098  0.19348  0.11502  1.0000
  U   U50       1.0  0.69902  0.8065199999999999  0.11502  1.0000
  U   U51       1.0  0.69902  0.19348  0.88498  1.0000
  U   U52       1.0  0.30098  0.8065199999999999  0.88498  1.0000
  U   U53       1.0  0.8009800000000001  0.69348  0.61502  1.0000
  U   U54       1.0  0.19901999999999997  0.30652  0.61502  1.0000
  U   U55       1.0  0.19901999999999997  0.69348  0.38498  1.0000
  U   U56       1.0  0.8009800000000001  0.30652  0.38498  1.0000
  U   U57       1.0  0.69902  0.8065199999999999  0.88498  1.0000
  U   U58       1.0  0.30098  0.19348  0.88498  1.0000
  U   U59       1.0  0.30098  0.8065199999999999  0.11502  1.0000
  U   U60       1.0  0.69902  0.19348  0.11502  1.0000
  U   U61       1.0  0.19901999999999997  0.30652  0.38498  1.0000
  U   U62       1.0  0.8009800000000001  0.69348  0.38498  1.0000
  U   U63       1.0  0.8009800000000001  0.30652  0.61502  1.0000
  U   U64       1.0  0.19901999999999997  0.69348  0.61502  1.0000
  O   O1        1.0  0.139  0.0792  0.15359999999999996  1.0000
  O   O2        1.0  0.8609999999999999  0.9207999999999998  0.15359999999999996  1.0000
  O   O3        1.0  0.8609999999999999  0.0792  0.8464  1.0000
  O   O4        1.0  0.139  0.9207999999999998  0.8464  1.0000
  O   O5        1.0  0.639  0.5792  0.6536  1.0000
  O   O6        1.0  0.361  0.4208  0.6536  1.0000
  O   O7        1.0  0.361  0.5792  0.34640000000000004  1.0000
  O   O8        1.0  0.639  0.4208  0.34640000000000004  1.0000
  O   O9        1.0  0.8609999999999999  0.9207999999999998  0.8464  1.0000
  O   O10       1.0  0.139  0.0792  0.8464  1.0000
  O   O11       1.0  0.139  0.9207999999999998  0.15359999999999996  1.0000
  O   O12       1.0  0.8609999999999999  0.0792  0.15359999999999996  1.0000
  O   O13       1.0  0.361  0.4208  0.34640000000000004  1.0000
  O   O14       1.0  0.639  0.5792  0.34640000000000004  1.0000
  O   O15       1.0  0.639  0.4208  0.6536  1.0000
  O   O16       1.0  0.361  0.5792  0.6536  1.0000
  O   O17       1.0  0.1262  0.0  0.225  1.0000
  O   O18       1.0  0.8738000000000001  0.0  0.225  1.0000
  O   O19       1.0  0.8738000000000001  0.0  0.775  1.0000
  O   O20       1.0  0.1262  0.0  0.775  1.0000
  O   O21       1.0  0.6262  0.5  0.7249999999999999  1.0000
  O   O22       1.0  0.3738  0.5  0.7249999999999999  1.0000
  O   O23       1.0  0.3738  0.5  0.275  1.0000
  O   O24       1.0  0.6262  0.5  0.275  1.0000
  O   O25       1.0  0.12410000000000002  0.37429999999999997  0.0  1.0000
  O   O26       1.0  0.8758999999999999  0.6257  0.0  1.0000
  O   O27       1.0  0.8758999999999999  0.37429999999999997  0.0  1.0000
  O   O28       1.0  0.12410000000000002  0.6257  0.0  1.0000
  O   O29       1.0  0.6241  0.8743  0.5  1.0000
  O   O30       1.0  0.3759  0.12570000000000003  0.5  1.0000
  O   O31       1.0  0.3759  0.8743  0.5  1.0000
  O   O32       1.0  0.6241  0.12570000000000003  0.5  1.0000
  O   O33       1.0  0.0  0.2657  0.092  1.0000
  O   O34       1.0  0.0  0.7342999999999998  0.092  1.0000
  O   O35       1.0  0.0  0.2657  0.908  1.0000
  O   O36       1.0  0.0  0.7342999999999998  0.908  1.0000
  O   O37       1.0  0.5  0.7657  0.592  1.0000
  O   O38       1.0  0.5  0.2343  0.592  1.0000
  O   O39       1.0  0.5  0.7657  0.40800000000000003  1.0000
  O   O40       1.0  0.5  0.2343  0.40800000000000003  1.0000
  O   O41       1.0  0.0  0.15299999999999997  0.16  1.0000
  O   O42       1.0  0.0  0.8469999999999999  0.16  1.0000
  O   O43       1.0  0.0  0.15299999999999997  0.84  1.0000
  O   O44       1.0  0.0  0.8469999999999999  0.84  1.0000
  O   O45       1.0  0.5  0.653  0.6599999999999999  1.0000
  O   O46       1.0  0.5  0.34700000000000003  0.6599999999999999  1.0000
  O   O47       1.0  0.5  0.653  0.33999999999999997  1.0000
  O   O48       1.0  0.5  0.34700000000000003  0.33999999999999997  1.0000
  O   O49       1.0  0.2509  0.3157  0.0  1.0000
  O   O50       1.0  0.7491  0.6843  0.0  1.0000
  O   O51       1.0  0.7491  0.3157  0.0  1.0000
  O   O52       1.0  0.2509  0.6843  0.0  1.0000
  O   O53       1.0  0.7509  0.8157  0.5  1.0000
  O   O54       1.0  0.24910000000000002  0.1843  0.5  1.0000
  O   O55       1.0  0.24910000000000002  0.8157  0.5  1.0000
  O   O56       1.0  0.7509  0.1843  0.5  1.0000
  O   O57       1.0  0.1429  0.2597  0.0473  1.0000
  O   O58       1.0  0.8571  0.7403  0.0473  1.0000
  O   O59       1.0  0.8571  0.2597  0.9526999999999999  1.0000
  O   O60       1.0  0.1429  0.7403  0.9526999999999999  1.0000
  O   O61       1.0  0.6429  0.7597  0.5473  1.0000
  O   O62       1.0  0.3571  0.24029999999999999  0.5473  1.0000
  O   O63       1.0  0.3571  0.7597  0.4527  1.0000
  O   O64       1.0  0.6429  0.24029999999999999  0.4527  1.0000
  O   O65       1.0  0.8571  0.7403  0.9526999999999999  1.0000
  O   O66       1.0  0.1429  0.2597  0.9526999999999999  1.0000
  O   O67       1.0  0.1429  0.7403  0.0473  1.0000
  O   O68       1.0  0.8571  0.2597  0.0473  1.0000
  O   O69       1.0  0.3571  0.24029999999999999  0.4527  1.0000
  O   O70       1.0  0.6429  0.7597  0.4527  1.0000
  O   O71       1.0  0.6429  0.24029999999999999  0.5473  1.0000
  O   O72       1.0  0.3571  0.7597  0.5473  1.0000
  O   O73       1.0  0.0762  0.3858  0.0777  1.0000
  O   O74       1.0  0.9238  0.6142000000000001  0.0777  1.0000
  O   O75       1.0  0.9238  0.3858  0.9223000000000001  1.0000
  O   O76       1.0  0.0762  0.6142000000000001  0.9223000000000001  1.0000
  O   O77       1.0  0.5762  0.8857999999999999  0.5777  1.0000
  O   O78       1.0  0.4238  0.11420000000000002  0.5777  1.0000
  O   O79       1.0  0.4238  0.8857999999999999  0.4223  1.0000
  O   O80       1.0  0.5762  0.11420000000000002  0.4223  1.0000
  O   O81       1.0  0.9238  0.6142000000000001  0.9223000000000001  1.0000
  O   O82       1.0  0.0762  0.3858  0.9223000000000001  1.0000
  O   O83       1.0  0.0762  0.6142000000000001  0.0777  1.0000
  O   O84       1.0  0.9238  0.3858  0.0777  1.0000
  O   O85       1.0  0.4238  0.11420000000000002  0.4223  1.0000
  O   O86       1.0  0.5762  0.8857999999999999  0.4223  1.0000
  O   O87       1.0  0.5762  0.11420000000000002  0.5777  1.0000
  O   O88       1.0  0.4238  0.8857999999999999  0.5777  1.0000
  O   O89       1.0  0.2502  0.0  0.187  1.0000
  O   O90       1.0  0.7498  0.0  0.187  1.0000
  O   O91       1.0  0.7498  0.0  0.813  1.0000
  O   O92       1.0  0.2502  0.0  0.813  1.0000
  O   O93       1.0  0.7502  0.5  0.6869999999999999  1.0000
  O   O94       1.0  0.24980000000000002  0.5  0.6869999999999999  1.0000
  O   O95       1.0  0.24980000000000002  0.5  0.313  1.0000
  O   O96       1.0  0.7502  0.5  0.313  1.0000
  O   O97       1.0  0.0  0.41229999999999994  0.1519  1.0000
  O   O98       1.0  0.0  0.5877000000000001  0.1519  1.0000
  O   O99       1.0  0.0  0.41229999999999994  0.8481  1.0000
  O   O100      1.0  0.0  0.5877000000000001  0.8481  1.0000
  O   O101      1.0  0.5  0.9122999999999998  0.6519  1.0000
  O   O102      1.0  0.5  0.08770000000000004  0.6519  1.0000
  O   O103      1.0  0.5  0.9122999999999998  0.34809999999999997  1.0000
  O   O104      1.0  0.5  0.08770000000000004  0.34809999999999997  1.0000
  O   O105      1.0  0.2243  0.4126  0.060599999999999994  1.0000
  O   O106      1.0  0.7757000000000001  0.5873999999999999  0.060599999999999994  1.0000
  O   O107      1.0  0.7757000000000001  0.4126  0.9394  1.0000
  O   O108      1.0  0.2243  0.5873999999999999  0.9394  1.0000
  O   O109      1.0  0.7242999999999999  0.9126000000000001  0.5606  1.0000
  O   O110      1.0  0.2757  0.08739999999999996  0.5606  1.0000
  O   O111      1.0  0.2757  0.9126000000000001  0.4394  1.0000
  O   O112      1.0  0.7242999999999999  0.08739999999999996  0.4394  1.0000
  O   O113      1.0  0.7757000000000001  0.5873999999999999  0.9394  1.0000
  O   O114      1.0  0.2243  0.4126  0.9394  1.0000
  O   O115      1.0  0.2243  0.5873999999999999  0.060599999999999994  1.0000
  O   O116      1.0  0.7757000000000001  0.4126  0.060599999999999994  1.0000
  O   O117      1.0  0.2757  0.08739999999999996  0.4394  1.0000
  O   O118      1.0  0.7242999999999999  0.9126000000000001  0.4394  1.0000
  O   O119      1.0  0.7242999999999999  0.08739999999999996  0.5606  1.0000
  O   O120      1.0  0.2757  0.9126000000000001  0.5606  1.0000
  O   O121      1.0  0.1181  0.1868  0.2146  1.0000
  O   O122      1.0  0.8819000000000001  0.8132  0.2146  1.0000
  O   O123      1.0  0.8819000000000001  0.1868  0.7854  1.0000
  O   O124      1.0  0.1181  0.8132  0.7854  1.0000
  O   O125      1.0  0.6181  0.6868  0.7146  1.0000
  O   O126      1.0  0.3819  0.31320000000000003  0.7146  1.0000
  O   O127      1.0  0.3819  0.6868  0.2854  1.0000
  O   O128      1.0  0.6181  0.31320000000000003  0.2854  1.0000
  O   O129      1.0  0.8819000000000001  0.8132  0.7854  1.0000
  O   O130      1.0  0.1181  0.1868  0.7854  1.0000
  O   O131      1.0  0.1181  0.8132  0.2146  1.0000
  O   O132      1.0  0.8819000000000001  0.1868  0.2146  1.0000
  O   O133      1.0  0.3819  0.31320000000000003  0.2854  1.0000
  O   O134      1.0  0.6181  0.6868  0.2854  1.0000
  O   O135      1.0  0.6181  0.31320000000000003  0.7146  1.0000
  O   O136      1.0  0.3819  0.6868  0.7146  1.0000
  O   O137      1.0  0.2414  0.1856  0.1746  1.0000
  O   O138      1.0  0.7585999999999999  0.8144  0.1746  1.0000
  O   O139      1.0  0.7585999999999999  0.1856  0.8254  1.0000
  O   O140      1.0  0.2414  0.8144  0.8254  1.0000
  O   O141      1.0  0.7414000000000002  0.6855999999999999  0.6745999999999999  1.0000
  O   O142      1.0  0.2586  0.3144  0.6745999999999999  1.0000
  O   O143      1.0  0.2586  0.6855999999999999  0.3254  1.0000
  O   O144      1.0  0.7414000000000002  0.3144  0.3254  1.0000
  O   O145      1.0  0.7585999999999999  0.8144  0.8254  1.0000
  O   O146      1.0  0.2414  0.1856  0.8254  1.0000
  O   O147      1.0  0.2414  0.8144  0.1746  1.0000
  O   O148      1.0  0.7585999999999999  0.1856  0.1746  1.0000
  O   O149      1.0  0.2586  0.3144  0.3254  1.0000
  O   O150      1.0  0.7414000000000002  0.6855999999999999  0.3254  1.0000
  O   O151      1.0  0.7414000000000002  0.3144  0.6745999999999999  1.0000
  O   O152      1.0  0.2586  0.6855999999999999  0.6745999999999999  1.0000
  O   O153      1.0  0.22820000000000001  0.1034  0.243  1.0000
  O   O154      1.0  0.7718  0.8966  0.243  1.0000
  O   O155      1.0  0.7718  0.1034  0.757  1.0000
  O   O156      1.0  0.22820000000000001  0.8966  0.757  1.0000
  O   O157      1.0  0.7282  0.6034  0.743  1.0000
  O   O158      1.0  0.2718  0.3966  0.743  1.0000
  O   O159      1.0  0.2718  0.6034  0.257  1.0000
  O   O160      1.0  0.7282  0.3966  0.257  1.0000
  O   O161      1.0  0.7718  0.8966  0.757  1.0000
  O   O162      1.0  0.22820000000000001  0.1034  0.757  1.0000
  O   O163      1.0  0.22820000000000001  0.8966  0.243  1.0000
  O   O164      1.0  0.7718  0.1034  0.243  1.0000
  O   O165      1.0  0.2718  0.3966  0.257  1.0000
  O   O166      1.0  0.7282  0.6034  0.257  1.0000
  O   O167      1.0  0.7282  0.3966  0.743  1.0000
  O   O168      1.0  0.2718  0.6034  0.743  1.0000
  O   O169      1.0  0.2325  0.1513  0.0886  1.0000
  O   O170      1.0  0.7675  0.8486999999999999  0.0886  1.0000
  O   O171      1.0  0.7675  0.1513  0.9114  1.0000
  O   O172      1.0  0.2325  0.8486999999999999  0.9114  1.0000
  O   O173      1.0  0.7325  0.6513  0.5886  1.0000
  O   O174      1.0  0.26749999999999996  0.3487  0.5886  1.0000
  O   O175      1.0  0.26749999999999996  0.6513  0.41139999999999993  1.0000
  O   O176      1.0  0.7325  0.3487  0.41139999999999993  1.0000
  O   O177      1.0  0.7675  0.8486999999999999  0.9114  1.0000
  O   O178      1.0  0.2325  0.1513  0.9114  1.0000
  O   O179      1.0  0.2325  0.8486999999999999  0.0886  1.0000
  O   O180      1.0  0.7675  0.1513  0.0886  1.0000
  O   O181      1.0  0.26749999999999996  0.3487  0.41139999999999993  1.0000
  O   O182      1.0  0.7325  0.6513  0.41139999999999993  1.0000
  O   O183      1.0  0.7325  0.3487  0.5886  1.0000
  O   O184      1.0  0.26749999999999996  0.6513  0.5886  1.0000
  O   O185      1.0  0.11750000000000001  0.35999999999999993  0.1094  1.0000
  O   O186      1.0  0.8825  0.6400000000000001  0.1094  1.0000
  O   O187      1.0  0.8825  0.35999999999999993  0.8906000000000001  1.0000
  O   O188      1.0  0.11750000000000001  0.6400000000000001  0.8906000000000001  1.0000
  O   O189      1.0  0.6175  0.8599999999999999  0.6093999999999999  1.0000
  O   O190      1.0  0.3825  0.14000000000000007  0.6093999999999999  1.0000
  O   O191      1.0  0.3825  0.8599999999999999  0.39059999999999995  1.0000
  O   O192      1.0  0.6175  0.14000000000000007  0.39059999999999995  1.0000
  O   O193      1.0  0.8825  0.6400000000000001  0.8906000000000001  1.0000
  O   O194      1.0  0.11750000000000001  0.35999999999999993  0.8906000000000001  1.0000
  O   O195      1.0  0.11750000000000001  0.6400000000000001  0.1094  1.0000
  O   O196      1.0  0.8825  0.35999999999999993  0.1094  1.0000
  O   O197      1.0  0.3825  0.14000000000000007  0.39059999999999995  1.0000
  O   O198      1.0  0.6175  0.8599999999999999  0.39059999999999995  1.0000
  O   O199      1.0  0.6175  0.14000000000000007  0.6093999999999999  1.0000
  O   O200      1.0  0.3825  0.8599999999999999  0.6093999999999999  1.0000
  O   O201      1.0  0.0796  0.1277  0.2307  1.0000
  O   O202      1.0  0.9204  0.8723  0.2307  1.0000
  O   O203      1.0  0.9204  0.1277  0.7693  1.0000
  O   O204      1.0  0.0796  0.8723  0.7693  1.0000
  O   O205      1.0  0.5796  0.6277  0.7307  1.0000
  O   O206      1.0  0.4204  0.37229999999999996  0.7307  1.0000
  O   O207      1.0  0.4204  0.6277  0.2693  1.0000
  O   O208      1.0  0.5796  0.37229999999999996  0.2693  1.0000
  O   O209      1.0  0.9204  0.8723  0.7693  1.0000
  O   O210      1.0  0.0796  0.1277  0.7693  1.0000
  O   O211      1.0  0.0796  0.8723  0.2307  1.0000
  O   O212      1.0  0.9204  0.1277  0.2307  1.0000
  O   O213      1.0  0.4204  0.37229999999999996  0.2693  1.0000
  O   O214      1.0  0.5796  0.6277  0.2693  1.0000
  O   O215      1.0  0.5796  0.37229999999999996  0.7307  1.0000
  O   O216      1.0  0.4204  0.6277  0.7307  1.0000
  O   O217      1.0  0.06590000000000001  0.283  0.1689  1.0000
  O   O218      1.0  0.9341  0.7170000000000001  0.1689  1.0000
  O   O219      1.0  0.9341  0.283  0.8311  1.0000
  O   O220      1.0  0.06590000000000001  0.7170000000000001  0.8311  1.0000
  O   O221      1.0  0.5659000000000001  0.7829999999999999  0.6689  1.0000
  O   O222      1.0  0.43410000000000004  0.217  0.6689  1.0000
  O   O223      1.0  0.43410000000000004  0.7829999999999999  0.33109999999999995  1.0000
  O   O224      1.0  0.5659000000000001  0.217  0.33109999999999995  1.0000
  O   O225      1.0  0.9341  0.7170000000000001  0.8311  1.0000
  O   O226      1.0  0.06590000000000001  0.283  0.8311  1.0000
  O   O227      1.0  0.06590000000000001  0.7170000000000001  0.1689  1.0000
  O   O228      1.0  0.9341  0.283  0.1689  1.0000
  O   O229      1.0  0.43410000000000004  0.217  0.33109999999999995  1.0000
  O   O230      1.0  0.5659000000000001  0.7829999999999999  0.33109999999999995  1.0000
  O   O231      1.0  0.5659000000000001  0.217  0.6689  1.0000
  O   O232      1.0  0.43410000000000004  0.7829999999999999  0.6689  1.0000
  O   O233      1.0  0.287  0.1252  0.17129999999999995  1.0000
  O   O234      1.0  0.7130000000000001  0.8747999999999999  0.17129999999999995  1.0000
  O   O235      1.0  0.7130000000000001  0.1252  0.8287  1.0000
  O   O236      1.0  0.287  0.8747999999999999  0.8287  1.0000
  O   O237      1.0  0.7869999999999999  0.6252  0.6713  1.0000
  O   O238      1.0  0.21300000000000002  0.3748  0.6713  1.0000
  O   O239      1.0  0.21300000000000002  0.6252  0.3287  1.0000
  O   O240      1.0  0.7869999999999999  0.3748  0.3287  1.0000
  O   O241      1.0  0.7130000000000001  0.8747999999999999  0.8287  1.0000
  O   O242      1.0  0.287  0.1252  0.8287  1.0000
  O   O243      1.0  0.287  0.8747999999999999  0.17129999999999995  1.0000
  O   O244      1.0  0.7130000000000001  0.1252  0.17129999999999995  1.0000
  O   O245      1.0  0.21300000000000002  0.3748  0.3287  1.0000
  O   O246      1.0  0.7869999999999999  0.6252  0.3287  1.0000
  O   O247      1.0  0.7869999999999999  0.3748  0.6713  1.0000
  O   O248      1.0  0.21300000000000002  0.6252  0.6713  1.0000
  O   O249      1.0  0.2886  0.2865  0.07519999999999999  1.0000
  O   O250      1.0  0.7114  0.7135  0.07519999999999999  1.0000
  O   O251      1.0  0.7114  0.2865  0.9248000000000001  1.0000
  O   O252      1.0  0.2886  0.7135  0.9248000000000001  1.0000
  O   O253      1.0  0.7886  0.7865  0.5751999999999999  1.0000
  O   O254      1.0  0.21139999999999998  0.2135  0.5751999999999999  1.0000
  O   O255      1.0  0.21139999999999998  0.7865  0.4248  1.0000
  O   O256      1.0  0.7886  0.2135  0.4248  1.0000
  O   O257      1.0  0.7114  0.7135  0.9248000000000001  1.0000
  O   O258      1.0  0.2886  0.2865  0.9248000000000001  1.0000
  O   O259      1.0  0.2886  0.7135  0.07519999999999999  1.0000
  O   O260      1.0  0.7114  0.2865  0.07519999999999999  1.0000
  O   O261      1.0  0.21139999999999998  0.2135  0.4248  1.0000
  O   O262      1.0  0.7886  0.7865  0.4248  1.0000
  O   O263      1.0  0.7886  0.2135  0.5751999999999999  1.0000
  O   O264      1.0  0.21139999999999998  0.7865  0.5751999999999999  1.0000
  O   O265      1.0  0.0  0.2565  0.243  1.0000
  O   O266      1.0  0.0  0.7435  0.243  1.0000
  O   O267      1.0  0.0  0.2565  0.757  1.0000
  O   O268      1.0  0.0  0.7435  0.757  1.0000
  O   O269      1.0  0.5  0.7564999999999998  0.743  1.0000
  O   O270      1.0  0.5  0.24349999999999997  0.743  1.0000
  O   O271      1.0  0.5  0.7564999999999998  0.257  1.0000
  O   O272      1.0  0.5  0.24349999999999997  0.257  1.0000
  O   O273      1.0  0.2404  0.2929  0.11059999999999999  1.0000
  O   O274      1.0  0.7596  0.7071000000000001  0.11059999999999999  1.0000
  O   O275      1.0  0.7596  0.2929  0.8894  1.0000
  O   O276      1.0  0.2404  0.7071000000000001  0.8894  1.0000
  O   O277      1.0  0.7404  0.7928999999999999  0.6106  1.0000
  O   O278      1.0  0.2596  0.2071  0.6106  1.0000
  O   O279      1.0  0.2596  0.7928999999999999  0.3894  1.0000
  O   O280      1.0  0.7404  0.2071  0.3894  1.0000
  O   O281      1.0  0.7596  0.7071000000000001  0.8894  1.0000
  O   O282      1.0  0.2404  0.2929  0.8894  1.0000
  O   O283      1.0  0.2404  0.7071000000000001  0.11059999999999999  1.0000
  O   O284      1.0  0.7596  0.2929  0.11059999999999999  1.0000
  O   O285      1.0  0.2596  0.2071  0.3894  1.0000
  O   O286      1.0  0.7404  0.7928999999999999  0.3894  1.0000
  O   O287      1.0  0.7404  0.2071  0.6106  1.0000
  O   O288      1.0  0.2596  0.7928999999999999  0.6106  1.0000
  O   O289      1.0  0.3717  0.2396  0.1427  1.0000
  O   O290      1.0  0.6283000000000001  0.7603999999999999  0.1427  1.0000
  O   O291      1.0  0.6283000000000001  0.2396  0.8573  1.0000
  O   O292      1.0  0.3717  0.7603999999999999  0.8573  1.0000
  O   O293      1.0  0.8716999999999999  0.7396  0.6427  1.0000
  O   O294      1.0  0.12830000000000003  0.26039999999999996  0.6427  1.0000
  O   O295      1.0  0.12830000000000003  0.7396  0.3573  1.0000
  O   O296      1.0  0.8716999999999999  0.26039999999999996  0.3573  1.0000
  O   O297      1.0  0.6283000000000001  0.7603999999999999  0.8573  1.0000
  O   O298      1.0  0.3717  0.2396  0.8573  1.0000
  O   O299      1.0  0.3717  0.7603999999999999  0.1427  1.0000
  O   O300      1.0  0.6283000000000001  0.2396  0.1427  1.0000
  O   O301      1.0  0.12830000000000003  0.26039999999999996  0.3573  1.0000
  O   O302      1.0  0.8716999999999999  0.7396  0.3573  1.0000
  O   O303      1.0  0.8716999999999999  0.26039999999999996  0.6427  1.0000
  O   O304      1.0  0.12830000000000003  0.7396  0.6427  1.0000
  O   O305      1.0  0.3769  0.1656  0.060399999999999995  1.0000
  O   O306      1.0  0.6231000000000001  0.8344  0.060399999999999995  1.0000
  O   O307      1.0  0.6231000000000001  0.1656  0.9395999999999999  1.0000
  O   O308      1.0  0.3769  0.8344  0.9395999999999999  1.0000
  O   O309      1.0  0.8769000000000001  0.6655999999999999  0.5604  1.0000
  O   O310      1.0  0.12309999999999999  0.33440000000000003  0.5604  1.0000
  O   O311      1.0  0.12309999999999999  0.6655999999999999  0.4396  1.0000
  O   O312      1.0  0.8769000000000001  0.33440000000000003  0.4396  1.0000
  O   O313      1.0  0.6231000000000001  0.8344  0.9395999999999999  1.0000
  O   O314      1.0  0.3769  0.1656  0.9395999999999999  1.0000
  O   O315      1.0  0.3769  0.8344  0.060399999999999995  1.0000
  O   O316      1.0  0.6231000000000001  0.1656  0.060399999999999995  1.0000
  O   O317      1.0  0.12309999999999999  0.33440000000000003  0.4396  1.0000
  O   O318      1.0  0.8769000000000001  0.6655999999999999  0.4396  1.0000
  O   O319      1.0  0.8769000000000001  0.33440000000000003  0.5604  1.0000
  O   O320      1.0  0.12309999999999999  0.6655999999999999  0.5604  1.0000
  O   O321      1.0  0.383  0.10299999999999998  0.0874  1.0000
  O   O322      1.0  0.617  0.897  0.0874  1.0000
  O   O323      1.0  0.617  0.10299999999999998  0.9125999999999999  1.0000
  O   O324      1.0  0.383  0.897  0.9125999999999999  1.0000
  O   O325      1.0  0.883  0.603  0.5874  1.0000
  O   O326      1.0  0.117  0.39699999999999996  0.5874  1.0000
  O   O327      1.0  0.117  0.603  0.41259999999999997  1.0000
  O   O328      1.0  0.883  0.39699999999999996  0.41259999999999997  1.0000
  O   O329      1.0  0.617  0.897  0.9125999999999999  1.0000
  O   O330      1.0  0.383  0.10299999999999998  0.9125999999999999  1.0000
  O   O331      1.0  0.383  0.897  0.0874  1.0000
  O   O332      1.0  0.617  0.10299999999999998  0.0874  1.0000
  O   O333      1.0  0.117  0.39699999999999996  0.41259999999999997  1.0000
  O   O334      1.0  0.883  0.603  0.41259999999999997  1.0000
  O   O335      1.0  0.883  0.39699999999999996  0.5874  1.0000
  O   O336      1.0  0.117  0.603  0.5874  1.0000
