data_image0
_chemical_formula_structural       Cu4C8O28H24
_chemical_formula_sum              "Cu4 C8 O28 H24"
_cell_length_a       9.76
_cell_length_b       6.6015
_cell_length_c       10.5
_cell_angle_alpha    90.0
_cell_angle_beta     90.0
_cell_angle_gamma    90.0

_space_group_name_H-M_alt    "P 1"
_space_group_IT_number       1

loop_
  _space_group_symop_operation_xyz
  'x, y, z'

loop_
  _atom_site_type_symbol
  _atom_site_label
  _atom_site_symmetry_multiplicity
  _atom_site_fract_x
  _atom_site_fract_y
  _atom_site_fract_z
  _atom_site_occupancy
  Cu  Cu1       1.0  0.25  0.4999999999999999  0.14098  1.0000
  Cu  Cu2       1.0  0.75  0.4999999999999999  0.35901999999999995  1.0000
  Cu  Cu3       1.0  0.75  0.49999999999999994  0.8590199999999999  1.0000
  Cu  Cu4       1.0  0.25  0.49999999999999994  0.64098  1.0000
  C   C1        1.0  0.9815  0.3934999999999999  0.028999999999999998  1.0000
  C   C2        1.0  0.5185  0.6065  0.028999999999999998  1.0000
  C   C3        1.0  0.0185  0.3934999999999999  0.471  1.0000
  C   C4        1.0  0.48150000000000004  0.6065  0.471  1.0000
  C   C5        1.0  0.0185  0.6065  0.9709999999999999  1.0000
  C   C6        1.0  0.48150000000000004  0.3934999999999999  0.9709999999999999  1.0000
  C   C7        1.0  0.9815  0.6065  0.5289999999999999  1.0000
  C   C8        1.0  0.5185  0.3934999999999999  0.5289999999999999  1.0000
  O   O1        1.0  0.0679  0.3185  0.10189999999999999  1.0000
  O   O2        1.0  0.43210000000000004  0.6815  0.10189999999999999  1.0000
  O   O3        1.0  0.9321  0.3185  0.3981  1.0000
  O   O4        1.0  0.5679  0.6815  0.3981  1.0000
  O   O5        1.0  0.9321  0.6815  0.8980999999999999  1.0000
  O   O6        1.0  0.5679  0.3185  0.8980999999999999  1.0000
  O   O7        1.0  0.0679  0.6815  0.6018999999999999  1.0000
  O   O8        1.0  0.43210000000000004  0.3185  0.6018999999999999  1.0000
  O   O9        1.0  0.1318  0.6784999999999999  0.0016999999999999997  1.0000
  O   O10       1.0  0.36819999999999997  0.3215000000000001  0.0016999999999999997  1.0000
  O   O11       1.0  0.8682000000000001  0.6784999999999999  0.49829999999999997  1.0000
  O   O12       1.0  0.6318  0.3215000000000001  0.49829999999999997  1.0000
  O   O13       1.0  0.8682000000000001  0.3215000000000001  0.9982999999999999  1.0000
  O   O14       1.0  0.6318  0.6784999999999999  0.9982999999999999  1.0000
  O   O15       1.0  0.1318  0.3215000000000001  0.5017  1.0000
  O   O16       1.0  0.36819999999999997  0.6784999999999999  0.5017  1.0000
  O   O17       1.0  0.1864  0.7004999999999998  0.2926  1.0000
  O   O18       1.0  0.3136  0.2995000000000001  0.2926  1.0000
  O   O19       1.0  0.8136  0.7004999999999998  0.20739999999999997  1.0000
  O   O20       1.0  0.6864  0.2995000000000001  0.20739999999999997  1.0000
  O   O21       1.0  0.8136  0.2995000000000001  0.7074  1.0000
  O   O22       1.0  0.6864  0.7004999999999998  0.7074  1.0000
  O   O23       1.0  0.1864  0.2995000000000001  0.7926  1.0000
  O   O24       1.0  0.3136  0.7004999999999998  0.7926  1.0000
  O   O25       1.0  0.0  0.9897999999999999  0.25  1.0000
  O   O26       1.0  0.5  0.0102  0.25  1.0000
  O   O27       1.0  0.0  0.0102  0.75  1.0000
  O   O28       1.0  0.5  0.9897999999999999  0.75  1.0000
  H   H1        1.0  0.1584  0.8266  0.25719999999999993  1.0000
  H   H2        1.0  0.3416  0.17339999999999997  0.25719999999999993  1.0000
  H   H3        1.0  0.8415999999999999  0.8266  0.24280000000000007  1.0000
  H   H4        1.0  0.6584  0.17339999999999997  0.24280000000000007  1.0000
  H   H5        1.0  0.8415999999999999  0.17339999999999997  0.7428000000000001  1.0000
  H   H6        1.0  0.6584  0.8266  0.7428000000000001  1.0000
  H   H7        1.0  0.1584  0.17339999999999997  0.7571999999999999  1.0000
  H   H8        1.0  0.3416  0.8266  0.7571999999999999  1.0000
  H   H9        1.0  0.2622  0.7208999999999999  0.3497  1.0000
  H   H10       1.0  0.23779999999999998  0.2791000000000001  0.3497  1.0000
  H   H11       1.0  0.7378  0.7208999999999999  0.1503  1.0000
  H   H12       1.0  0.7622  0.2791000000000001  0.1503  1.0000
  H   H13       1.0  0.7378  0.2791000000000001  0.6503  1.0000
  H   H14       1.0  0.7622  0.7208999999999999  0.6503  1.0000
  H   H15       1.0  0.2622  0.2791000000000001  0.8497  1.0000
  H   H16       1.0  0.23779999999999998  0.7208999999999999  0.8497  1.0000
  H   H17       1.0  0.0302  0.0734  0.1806  1.0000
  H   H18       1.0  0.4698  0.9266  0.1806  1.0000
  H   H19       1.0  0.9697999999999999  0.0734  0.3194  1.0000
  H   H20       1.0  0.5302  0.9266  0.3194  1.0000
  H   H21       1.0  0.9697999999999999  0.9266  0.8193999999999999  1.0000
  H   H22       1.0  0.5302  0.0734  0.8193999999999999  1.0000
  H   H23       1.0  0.0302  0.9266  0.6806  1.0000
  H   H24       1.0  0.4698  0.0734  0.6806  1.0000
