data_image0
_chemical_formula_structural       H10
_chemical_formula_sum              "H10"
_cell_length_a       1.1059920106684318
_cell_length_b       1.0
_cell_length_c       1.357110377429055
_cell_angle_alpha    90.1723756018686
_cell_angle_beta     110.04136276683022
_cell_angle_gamma    90.02048209445462

_space_group_name_H-M_alt    "P 1"
_space_group_IT_number       1

loop_
  _space_group_symop_operation_xyz
  'x, y, z'

loop_
  _atom_site_type_symbol
  _atom_site_label
  _atom_site_symmetry_multiplicity
  _atom_site_fract_x
  _atom_site_fract_y
  _atom_site_fract_z
  _atom_site_occupancy
  H   H1        1.0  -0.868149  -0.5750399000000002  -0.8971984999999999  1.0000
  H   H2        1.0  -0.845867  -0.7042419  -0.21153649999999996  1.0000
  H   H3        1.0  -0.9434199999999998  -0.0075718999999999995  -0.6650124999999999  1.0000
  H   H4        1.0  -0.215747  -0.5068879  -0.5147005  1.0000
  H   H5        1.0  -0.36767999999999995  -0.8234859000000001  -0.9965334999999998  1.0000
  H   H6        1.0  -0.7378599999999998  -0.5663239000000001  -0.41772249999999994  1.0000
  H   H7        1.0  -0.299446  -0.0583319  -0.3110195  1.0000
  H   H8        1.0  -0.566198  -0.0511419  -0.8391835  1.0000
  H   H9        1.0  -0.8419279999999999  -0.2957159  -0.19492949999999998  1.0000
  H   H10       1.0  -0.313705  -0.4112588999999999  -0.9521635  1.0000
