data_image0
_chemical_formula_structural       Ba4Ti2Si4O16
_chemical_formula_sum              "Ba4 Ti2 Si4 O16"
_cell_length_a       8.52
_cell_length_b       8.52
_cell_length_c       5.21
_cell_angle_alpha    90.0
_cell_angle_beta     90.0
_cell_angle_gamma    90.0

_space_group_name_H-M_alt    "P 1"
_space_group_IT_number       1

loop_
  _space_group_symop_operation_xyz
  'x, y, z'

loop_
  _atom_site_type_symbol
  _atom_site_label
  _atom_site_symmetry_multiplicity
  _atom_site_fract_x
  _atom_site_fract_y
  _atom_site_fract_z
  _atom_site_occupancy
  Ba  Ba1       1.0  0.17299999999999993  0.6729999999999998  0.0  1.0000
  Ba  Ba2       1.0  0.8270000000000001  0.327  0.0  1.0000
  Ba  Ba3       1.0  0.6729999999999998  0.8270000000000001  0.0  1.0000
  Ba  Ba4       1.0  0.327  0.17300000000000004  0.0  1.0000
  Ti  Ti1       1.0  0.0  0.0  0.54  1.0000
  Ti  Ti2       1.0  0.5  0.5  0.54  1.0000
  Si  Si1       1.0  0.6299999999999999  0.13  0.52  1.0000
  Si  Si2       1.0  0.37000000000000005  0.87  0.52  1.0000
  Si  Si3       1.0  0.1299999999999999  0.36999999999999994  0.52  1.0000
  Si  Si4       1.0  0.8700000000000001  0.6299999999999999  0.52  1.0000
  O   O1        1.0  0.09  0.206  0.655  1.0000
  O   O2        1.0  0.9099999999999999  0.7939999999999999  0.655  1.0000
  O   O3        1.0  0.59  0.294  0.655  1.0000
  O   O4        1.0  0.41000000000000003  0.706  0.655  1.0000
  O   O5        1.0  0.7939999999999999  0.09  0.655  1.0000
  O   O6        1.0  0.206  0.9099999999999999  0.655  1.0000
  O   O7        1.0  0.706  0.59  0.655  1.0000
  O   O8        1.0  0.294  0.41000000000000003  0.655  1.0000
  O   O9        1.0  0.6179999999999998  0.11799999999999998  0.20999999999999996  1.0000
  O   O10       1.0  0.38200000000000006  0.882  0.20999999999999996  1.0000
  O   O11       1.0  0.11799999999999987  0.38199999999999995  0.20999999999999996  1.0000
  O   O12       1.0  0.8820000000000001  0.6179999999999999  0.20999999999999996  1.0000
  O   O13       1.0  0.5  0.0  0.62  1.0000
  O   O14       1.0  0.0  0.5  0.62  1.0000
  O   O15       1.0  0.0  0.0  0.16  1.0000
  O   O16       1.0  0.5  0.5  0.16  1.0000
