data_image0
_chemical_formula_structural       Rb4Ti2Cu4S8
_chemical_formula_sum              "Rb4 Ti2 Cu4 S8"
_cell_length_a       5.6046
_cell_length_b       5.6046
_cell_length_c       13.1541
_cell_angle_alpha    90.0
_cell_angle_beta     90.0
_cell_angle_gamma    90.0

_space_group_name_H-M_alt    "P 1"
_space_group_IT_number       1

loop_
  _space_group_symop_operation_xyz
  'x, y, z'

loop_
  _atom_site_type_symbol
  _atom_site_label
  _atom_site_symmetry_multiplicity
  _atom_site_fract_x
  _atom_site_fract_y
  _atom_site_fract_z
  _atom_site_occupancy
  Rb  Rb1       1.0  0.2369  0.2369  0.0  1.0000
  Rb  Rb2       1.0  0.7631  0.7631  0.0  1.0000
  Rb  Rb3       1.0  0.7631  0.2369  0.5  1.0000
  Rb  Rb4       1.0  0.2369  0.7631  0.5  1.0000
  Ti  Ti1       1.0  0.5  0.5  0.25  1.0000
  Ti  Ti2       1.0  0.5  0.5  0.7500000000000001  1.0000
  Cu  Cu1       1.0  0.0  0.5  0.25  1.0000
  Cu  Cu2       1.0  0.5  0.0  0.7500000000000001  1.0000
  Cu  Cu3       1.0  0.0  0.5  0.7500000000000001  1.0000
  Cu  Cu4       1.0  0.5  0.0  0.25  1.0000
  S   S1        1.0  0.26316  0.26316  0.3480300000000001  1.0000
  S   S2        1.0  0.7368399999999998  0.7368399999999998  0.3480300000000001  1.0000
  S   S3        1.0  0.7368399999999998  0.26316  0.8480300000000002  1.0000
  S   S4        1.0  0.26316  0.7368399999999998  0.8480300000000002  1.0000
  S   S5        1.0  0.7368399999999998  0.26316  0.15196999999999994  1.0000
  S   S6        1.0  0.26316  0.7368399999999998  0.15196999999999994  1.0000
  S   S7        1.0  0.26316  0.26316  0.6519699999999999  1.0000
  S   S8        1.0  0.7368399999999998  0.7368399999999998  0.6519699999999999  1.0000
