data_image0
_chemical_formula_structural       Y4P20O56
_chemical_formula_sum              "Y4 P20 O56"
_cell_length_a       8.7128
_cell_length_b       12.7218
_cell_length_c       8.9377
_cell_angle_alpha    90.0
_cell_angle_beta     90.0
_cell_angle_gamma    90.0

_space_group_name_H-M_alt    "P 1"
_space_group_IT_number       1

loop_
  _space_group_symop_operation_xyz
  'x, y, z'

loop_
  _atom_site_type_symbol
  _atom_site_label
  _atom_site_symmetry_multiplicity
  _atom_site_fract_x
  _atom_site_fract_y
  _atom_site_fract_z
  _atom_site_occupancy
  Y   Y1        1.0  0.01824  0.25  0.05695  1.0000
  Y   Y2        1.0  0.4817600000000001  0.75  0.5569500000000001  1.0000
  Y   Y3        1.0  0.9817599999999999  0.75  0.94305  1.0000
  Y   Y4        1.0  0.51824  0.25  0.44305  1.0000
  P   P1        1.0  0.49261  0.4175  0.7980200000000001  1.0000
  P   P2        1.0  0.007390000000000008  0.5825  0.29802  1.0000
  P   P3        1.0  0.50739  0.9175  0.20198  1.0000
  P   P4        1.0  0.9926100000000001  0.08250000000000002  0.70198  1.0000
  P   P5        1.0  0.50739  0.5825  0.20198  1.0000
  P   P6        1.0  0.9926100000000001  0.4175  0.70198  1.0000
  P   P7        1.0  0.49261  0.08250000000000002  0.7980200000000001  1.0000
  P   P8        1.0  0.007390000000000008  0.9175  0.29802  1.0000
  P   P9        1.0  0.43  0.25  0.00645  1.0000
  P   P10       1.0  0.07  0.75  0.50645  1.0000
  P   P11       1.0  0.5700000000000001  0.75  0.99355  1.0000
  P   P12       1.0  0.9299999999999998  0.25  0.49355000000000004  1.0000
  P   P13       1.0  0.75534  0.43269  0.22692000000000004  1.0000
  P   P14       1.0  0.74466  0.5673100000000001  0.72692  1.0000
  P   P15       1.0  0.24466000000000002  0.9326900000000001  0.77308  1.0000
  P   P16       1.0  0.25533999999999996  0.06730999999999998  0.27308  1.0000
  P   P17       1.0  0.24466000000000002  0.5673100000000001  0.77308  1.0000
  P   P18       1.0  0.25533999999999996  0.43269  0.27308  1.0000
  P   P19       1.0  0.75534  0.06730999999999998  0.22692000000000004  1.0000
  P   P20       1.0  0.74466  0.9326900000000001  0.72692  1.0000
  O   O1        1.0  0.2739  0.25  0.9414000000000001  1.0000
  O   O2        1.0  0.22610000000000002  0.75  0.4414  1.0000
  O   O3        1.0  0.7261  0.75  0.058600000000000006  1.0000
  O   O4        1.0  0.7739  0.25  0.5586  1.0000
  O   O5        1.0  0.5265  0.347  0.9354000000000001  1.0000
  O   O6        1.0  0.9735  0.653  0.4354  1.0000
  O   O7        1.0  0.4735  0.847  0.0646  1.0000
  O   O8        1.0  0.026499999999999968  0.15300000000000002  0.5646  1.0000
  O   O9        1.0  0.4735  0.653  0.0646  1.0000
  O   O10       1.0  0.026499999999999968  0.347  0.5646  1.0000
  O   O11       1.0  0.5265  0.15300000000000002  0.9354000000000001  1.0000
  O   O12       1.0  0.9735  0.847  0.4354  1.0000
  O   O13       1.0  0.9617999999999999  0.25  0.3332  1.0000
  O   O14       1.0  0.5382  0.75  0.8331999999999999  1.0000
  O   O15       1.0  0.0382  0.75  0.6668000000000002  1.0000
  O   O16       1.0  0.46179999999999993  0.25  0.1668  1.0000
  O   O17       1.0  0.8244  0.3732  0.10350000000000002  1.0000
  O   O18       1.0  0.6756  0.6268  0.6035  1.0000
  O   O19       1.0  0.1756  0.8732000000000001  0.8965  1.0000
  O   O20       1.0  0.3244  0.12680000000000002  0.39649999999999996  1.0000
  O   O21       1.0  0.1756  0.6268  0.8965  1.0000
  O   O22       1.0  0.3244  0.3732  0.39649999999999996  1.0000
  O   O23       1.0  0.8244  0.12680000000000002  0.10350000000000002  1.0000
  O   O24       1.0  0.6756  0.8732000000000001  0.6035  1.0000
  O   O25       1.0  0.6146  0.5051  0.8196  1.0000
  O   O26       1.0  0.8853999999999999  0.49490000000000006  0.3196  1.0000
  O   O27       1.0  0.38539999999999996  0.0051000000000001044  0.1804  1.0000
  O   O28       1.0  0.11460000000000004  0.9949  0.6804000000000001  1.0000
  O   O29       1.0  0.38539999999999996  0.49490000000000006  0.1804  1.0000
  O   O30       1.0  0.11460000000000004  0.5051  0.6804000000000001  1.0000
  O   O31       1.0  0.6146  0.9949  0.8196  1.0000
  O   O32       1.0  0.8853999999999999  0.0051000000000001044  0.3196  1.0000
  O   O33       1.0  0.1567  0.3836  0.1598  1.0000
  O   O34       1.0  0.3433  0.6164000000000001  0.6597999999999999  1.0000
  O   O35       1.0  0.8432999999999999  0.8836  0.8402000000000001  1.0000
  O   O36       1.0  0.6567000000000001  0.1164  0.34020000000000006  1.0000
  O   O37       1.0  0.8432999999999999  0.6164000000000001  0.8402000000000001  1.0000
  O   O38       1.0  0.6567000000000001  0.3836  0.34020000000000006  1.0000
  O   O39       1.0  0.1567  0.1164  0.1598  1.0000
  O   O40       1.0  0.3433  0.8836  0.6597999999999999  1.0000
  O   O41       1.0  0.3374  0.4704  0.8448  1.0000
  O   O42       1.0  0.16260000000000002  0.5296000000000002  0.3448  1.0000
  O   O43       1.0  0.6626000000000001  0.9703999999999999  0.1552  1.0000
  O   O44       1.0  0.8373999999999999  0.029600000000000015  0.6552  1.0000
  O   O45       1.0  0.6626000000000001  0.5296000000000002  0.1552  1.0000
  O   O46       1.0  0.8373999999999999  0.4704  0.6552  1.0000
  O   O47       1.0  0.3374  0.029600000000000015  0.8448  1.0000
  O   O48       1.0  0.16260000000000002  0.9703999999999999  0.3448  1.0000
  O   O49       1.0  0.9934  0.3649  0.8466  1.0000
  O   O50       1.0  0.5066  0.6351  0.3466000000000001  1.0000
  O   O51       1.0  0.0066  0.8649  0.1534  1.0000
  O   O52       1.0  0.49340000000000006  0.1351  0.6534  1.0000
  O   O53       1.0  0.0066  0.6351  0.1534  1.0000
  O   O54       1.0  0.49340000000000006  0.3649  0.6534  1.0000
  O   O55       1.0  0.9934  0.1351  0.8466  1.0000
  O   O56       1.0  0.5066  0.8649  0.3466000000000001  1.0000
