data_image0
_chemical_formula_structural       Zr6Mo12O48
_chemical_formula_sum              "Zr6 Mo12 O48"
_cell_length_a       10.13792
_cell_length_b       10.13792
_cell_length_c       11.71279
_cell_angle_alpha    90.0
_cell_angle_beta     90.0
_cell_angle_gamma    119.99999999999999

_space_group_name_H-M_alt    "P 1"
_space_group_IT_number       1

loop_
  _space_group_symop_operation_xyz
  'x, y, z'

loop_
  _atom_site_type_symbol
  _atom_site_label
  _atom_site_symmetry_multiplicity
  _atom_site_fract_x
  _atom_site_fract_y
  _atom_site_fract_z
  _atom_site_occupancy
  Zr  Zr1       1.0  0.0  0.0  0.0  1.0000
  Zr  Zr2       1.0  0.0  0.0  0.5  1.0000
  Zr  Zr3       1.0  0.33333  0.66667  0.9796000000000001  1.0000
  Zr  Zr4       1.0  0.6666700000000001  0.33333000000000007  0.4796  1.0000
  Zr  Zr5       1.0  0.6666700000000001  0.33333000000000007  0.020399999999999863  1.0000
  Zr  Zr6       1.0  0.33333  0.66667  0.5203999999999999  1.0000
  Mo  Mo1       1.0  0.3303  0.33860000000000007  0.147  1.0000
  Mo  Mo2       1.0  0.6614  0.9916999999999999  0.147  1.0000
  Mo  Mo3       1.0  0.008300000000000075  0.6697  0.147  1.0000
  Mo  Mo4       1.0  0.33860000000000007  0.33030000000000004  0.647  1.0000
  Mo  Mo5       1.0  0.6697  0.008300000000000085  0.647  1.0000
  Mo  Mo6       1.0  0.9916999999999999  0.6614  0.647  1.0000
  Mo  Mo7       1.0  0.6697  0.6614  0.8529999999999999  1.0000
  Mo  Mo8       1.0  0.33860000000000007  0.008300000000000085  0.8529999999999999  1.0000
  Mo  Mo9       1.0  0.9916999999999999  0.33030000000000004  0.8529999999999999  1.0000
  Mo  Mo10      1.0  0.6614  0.6697  0.353  1.0000
  Mo  Mo11      1.0  0.3303  0.9916999999999999  0.353  1.0000
  Mo  Mo12      1.0  0.008300000000000089  0.33860000000000007  0.353  1.0000
  O   O1        1.0  0.157  0.145  0.106  1.0000
  O   O2        1.0  0.855  0.012000000000000012  0.106  1.0000
  O   O3        1.0  0.988  0.843  0.106  1.0000
  O   O4        1.0  0.145  0.157  0.606  1.0000
  O   O5        1.0  0.843  0.9880000000000001  0.606  1.0000
  O   O6        1.0  0.012000000000000035  0.855  0.606  1.0000
  O   O7        1.0  0.843  0.855  0.8940000000000001  1.0000
  O   O8        1.0  0.14500000000000005  0.9880000000000001  0.8940000000000001  1.0000
  O   O9        1.0  0.012000000000000009  0.157  0.8940000000000001  1.0000
  O   O10       1.0  0.855  0.843  0.394  1.0000
  O   O11       1.0  0.157  0.012000000000000012  0.394  1.0000
  O   O12       1.0  0.988  0.145  0.394  1.0000
  O   O13       1.0  0.322  0.49600000000000005  0.091  1.0000
  O   O14       1.0  0.504  0.826  0.091  1.0000
  O   O15       1.0  0.17400000000000004  0.6779999999999999  0.091  1.0000
  O   O16       1.0  0.49600000000000016  0.32200000000000006  0.591  1.0000
  O   O17       1.0  0.6779999999999999  0.17400000000000004  0.591  1.0000
  O   O18       1.0  0.826  0.504  0.591  1.0000
  O   O19       1.0  0.6779999999999999  0.504  0.909  1.0000
  O   O20       1.0  0.49600000000000005  0.17400000000000004  0.909  1.0000
  O   O21       1.0  0.826  0.32200000000000006  0.909  1.0000
  O   O22       1.0  0.504  0.6779999999999999  0.4090000000000001  1.0000
  O   O23       1.0  0.322  0.826  0.4090000000000001  1.0000
  O   O24       1.0  0.17400000000000004  0.49600000000000005  0.4090000000000001  1.0000
  O   O25       1.0  0.529  0.36  0.122  1.0000
  O   O26       1.0  0.64  0.16900000000000004  0.122  1.0000
  O   O27       1.0  0.831  0.4709999999999999  0.122  1.0000
  O   O28       1.0  0.36000000000000004  0.5290000000000001  0.622  1.0000
  O   O29       1.0  0.4709999999999999  0.831  0.622  1.0000
  O   O30       1.0  0.16900000000000004  0.64  0.622  1.0000
  O   O31       1.0  0.4709999999999999  0.64  0.878  1.0000
  O   O32       1.0  0.36  0.831  0.878  1.0000
  O   O33       1.0  0.16900000000000007  0.5290000000000001  0.878  1.0000
  O   O34       1.0  0.64  0.4709999999999999  0.37799999999999995  1.0000
  O   O35       1.0  0.529  0.16900000000000004  0.37799999999999995  1.0000
  O   O36       1.0  0.831  0.36  0.37799999999999995  1.0000
  O   O37       1.0  0.318  0.34  0.2889  1.0000
  O   O38       1.0  0.6599999999999999  0.978  0.2889  1.0000
  O   O39       1.0  0.022000000000000002  0.6819999999999999  0.2889  1.0000
  O   O40       1.0  0.34  0.318  0.7888999999999999  1.0000
  O   O41       1.0  0.6819999999999999  0.02200000000000002  0.7888999999999999  1.0000
  O   O42       1.0  0.978  0.6599999999999999  0.7888999999999999  1.0000
  O   O43       1.0  0.6819999999999999  0.6599999999999999  0.7111000000000001  1.0000
  O   O44       1.0  0.34  0.02200000000000002  0.7111000000000001  1.0000
  O   O45       1.0  0.978  0.318  0.7111000000000001  1.0000
  O   O46       1.0  0.6599999999999999  0.6819999999999999  0.2111  1.0000
  O   O47       1.0  0.318  0.978  0.2111  1.0000
  O   O48       1.0  0.02200000000000001  0.34  0.2111  1.0000
