data_image0
_chemical_formula_structural       Rb16Cd32Sb36
_chemical_formula_sum              "Rb16 Cd32 Sb36"
_cell_length_a       16.504
_cell_length_b       12.411
_cell_length_c       12.38
_cell_angle_alpha    90.0
_cell_angle_beta     90.0
_cell_angle_gamma    90.0

_space_group_name_H-M_alt    "P 1"
_space_group_IT_number       1

loop_
  _space_group_symop_operation_xyz
  'x, y, z'

loop_
  _atom_site_type_symbol
  _atom_site_label
  _atom_site_symmetry_multiplicity
  _atom_site_fract_x
  _atom_site_fract_y
  _atom_site_fract_z
  _atom_site_occupancy
  Rb  Rb1       1.0  0.0  0.0  0.0  1.0000
  Rb  Rb2       1.0  0.0  0.0  0.5  1.0000
  Rb  Rb3       1.0  0.5  0.5  0.0  1.0000
  Rb  Rb4       1.0  0.5  0.5  0.5  1.0000
  Rb  Rb5       1.0  0.0  0.57108  0.25  1.0000
  Rb  Rb6       1.0  0.0  0.4289199999999999  0.75  1.0000
  Rb  Rb7       1.0  0.5  0.07108000000000003  0.25  1.0000
  Rb  Rb8       1.0  0.5  0.92892  0.75  1.0000
  Rb  Rb9       1.0  0.19427  0.35259999999999997  0.25  1.0000
  Rb  Rb10      1.0  0.8057300000000001  0.6474  0.75  1.0000
  Rb  Rb11      1.0  0.8057300000000001  0.35259999999999997  0.25  1.0000
  Rb  Rb12      1.0  0.19427  0.6474  0.75  1.0000
  Rb  Rb13      1.0  0.6942699999999999  0.8526  0.25  1.0000
  Rb  Rb14      1.0  0.30573  0.14740000000000003  0.75  1.0000
  Rb  Rb15      1.0  0.30573  0.8526  0.25  1.0000
  Rb  Rb16      1.0  0.6942699999999999  0.14740000000000003  0.75  1.0000
  Cd  Cd1       1.0  0.14004  0.05391999999999999  0.25  1.0000
  Cd  Cd2       1.0  0.8599600000000001  0.9460799999999999  0.75  1.0000
  Cd  Cd3       1.0  0.8599600000000001  0.05391999999999999  0.25  1.0000
  Cd  Cd4       1.0  0.14004  0.9460799999999999  0.75  1.0000
  Cd  Cd5       1.0  0.6400399999999999  0.55392  0.25  1.0000
  Cd  Cd6       1.0  0.35996  0.44608000000000003  0.75  1.0000
  Cd  Cd7       1.0  0.35996  0.55392  0.25  1.0000
  Cd  Cd8       1.0  0.6400399999999999  0.44608000000000003  0.75  1.0000
  Cd  Cd9       1.0  0.36818  0.24865  0.04569000000000001  1.0000
  Cd  Cd10      1.0  0.63182  0.75135  0.54569  1.0000
  Cd  Cd11      1.0  0.63182  0.24865  0.45431000000000005  1.0000
  Cd  Cd12      1.0  0.36818  0.75135  0.95431  1.0000
  Cd  Cd13      1.0  0.86818  0.7486499999999999  0.04569000000000001  1.0000
  Cd  Cd14      1.0  0.13182  0.25134999999999996  0.54569  1.0000
  Cd  Cd15      1.0  0.13182  0.7486499999999999  0.45431000000000005  1.0000
  Cd  Cd16      1.0  0.86818  0.25134999999999996  0.95431  1.0000
  Cd  Cd17      1.0  0.63182  0.75135  0.95431  1.0000
  Cd  Cd18      1.0  0.36818  0.24865  0.45431000000000005  1.0000
  Cd  Cd19      1.0  0.36818  0.75135  0.54569  1.0000
  Cd  Cd20      1.0  0.63182  0.24865  0.04569000000000001  1.0000
  Cd  Cd21      1.0  0.13182  0.25134999999999996  0.95431  1.0000
  Cd  Cd22      1.0  0.86818  0.7486499999999999  0.45431000000000005  1.0000
  Cd  Cd23      1.0  0.86818  0.25134999999999996  0.54569  1.0000
  Cd  Cd24      1.0  0.13182  0.7486499999999999  0.04569000000000001  1.0000
  Cd  Cd25      1.0  0.3892  0.0  0.0  0.1170
  Cd  Cd26      1.0  0.6108  0.0  0.5  0.1170
  Cd  Cd27      1.0  0.8892  0.5  0.0  0.1170
  Cd  Cd28      1.0  0.11080000000000001  0.5  0.5  0.1170
  Cd  Cd29      1.0  0.6108  0.0  0.0  0.1170
  Cd  Cd30      1.0  0.3892  0.0  0.5  0.1170
  Cd  Cd31      1.0  0.11080000000000001  0.5  0.0  0.1170
  Cd  Cd32      1.0  0.8892  0.5  0.5  0.1170
  Sb  Sb1       1.0  0.0  0.19125  0.25  1.0000
  Sb  Sb2       1.0  0.0  0.8087499999999999  0.75  1.0000
  Sb  Sb3       1.0  0.5  0.6912499999999999  0.25  1.0000
  Sb  Sb4       1.0  0.5  0.3087499999999999  0.75  1.0000
  Sb  Sb5       1.0  0.0  0.33599  0.07273000000000002  1.0000
  Sb  Sb6       1.0  0.0  0.66401  0.57273  1.0000
  Sb  Sb7       1.0  0.0  0.33599  0.42727000000000004  1.0000
  Sb  Sb8       1.0  0.0  0.66401  0.9272700000000001  1.0000
  Sb  Sb9       1.0  0.5  0.83599  0.07273000000000002  1.0000
  Sb  Sb10      1.0  0.5  0.16401  0.57273  1.0000
  Sb  Sb11      1.0  0.5  0.83599  0.42727000000000004  1.0000
  Sb  Sb12      1.0  0.5  0.16401  0.9272700000000001  1.0000
  Sb  Sb13      1.0  0.41499  0.33815  0.25  1.0000
  Sb  Sb14      1.0  0.58501  0.6618499999999999  0.75  1.0000
  Sb  Sb15      1.0  0.58501  0.33815  0.25  1.0000
  Sb  Sb16      1.0  0.41499  0.6618499999999999  0.75  1.0000
  Sb  Sb17      1.0  0.91499  0.8381499999999998  0.25  1.0000
  Sb  Sb18      1.0  0.08500999999999997  0.16185  0.75  1.0000
  Sb  Sb19      1.0  0.08500999999999997  0.8381499999999998  0.25  1.0000
  Sb  Sb20      1.0  0.91499  0.16185  0.75  1.0000
  Sb  Sb21      1.0  0.23412  0.09524999999999997  0.06228000000000001  1.0000
  Sb  Sb22      1.0  0.76588  0.90475  0.56228  1.0000
  Sb  Sb23      1.0  0.76588  0.09524999999999997  0.43772  1.0000
  Sb  Sb24      1.0  0.23412  0.90475  0.93772  1.0000
  Sb  Sb25      1.0  0.73412  0.59525  0.06228000000000001  1.0000
  Sb  Sb26      1.0  0.26588  0.40474999999999994  0.56228  1.0000
  Sb  Sb27      1.0  0.26588  0.59525  0.43772  1.0000
  Sb  Sb28      1.0  0.73412  0.40474999999999994  0.93772  1.0000
  Sb  Sb29      1.0  0.76588  0.90475  0.93772  1.0000
  Sb  Sb30      1.0  0.23412  0.09524999999999997  0.43772  1.0000
  Sb  Sb31      1.0  0.23412  0.90475  0.56228  1.0000
  Sb  Sb32      1.0  0.76588  0.09524999999999997  0.06228000000000001  1.0000
  Sb  Sb33      1.0  0.26588  0.40474999999999994  0.93772  1.0000
  Sb  Sb34      1.0  0.73412  0.59525  0.43772  1.0000
  Sb  Sb35      1.0  0.73412  0.40474999999999994  0.56228  1.0000
  Sb  Sb36      1.0  0.26588  0.59525  0.06228000000000001  1.0000
