data_image0
_chemical_formula_structural       Ba4Au8S8
_chemical_formula_sum              "Ba4 Au8 S8"
_cell_length_a       6.38972
_cell_length_b       6.38972
_cell_length_c       12.7872
_cell_angle_alpha    90.0
_cell_angle_beta     90.0
_cell_angle_gamma    90.0

_space_group_name_H-M_alt    "P 1"
_space_group_IT_number       1

loop_
  _space_group_symop_operation_xyz
  'x, y, z'

loop_
  _atom_site_type_symbol
  _atom_site_label
  _atom_site_symmetry_multiplicity
  _atom_site_fract_x
  _atom_site_fract_y
  _atom_site_fract_z
  _atom_site_occupancy
  Ba  Ba1       1.0  0.4999999999999999  0.24999999999999994  0.125  1.0000
  Ba  Ba2       1.0  2.775557561562891e-17  0.24999999999999997  0.375  1.0000
  Ba  Ba3       1.0  0.49999999999999994  0.7499999999999999  0.875  1.0000
  Ba  Ba4       1.0  2.775557561562891e-17  0.7499999999999999  0.625  1.0000
  Au  Au1       1.0  0.7499999999999998  0.24999999999999994  0.75  1.0000
  Au  Au2       1.0  2.775557561562891e-17  0.49999999999999994  0.0  1.0000
  Au  Au3       1.0  0.2500000000000001  0.24999999999999997  0.75  1.0000
  Au  Au4       1.0  0.49999999999999994  0.5000000000000001  0.5  1.0000
  Au  Au5       1.0  0.7499999999999998  0.7499999999999999  0.25  1.0000
  Au  Au6       1.0  0.2500000000000001  0.7499999999999999  0.25  1.0000
  Au  Au7       1.0  0.49999999999999994  0.9999999999999998  0.5  1.0000
  Au  Au8       1.0  0.0  1.1102230246251564e-16  0.0  1.0000
  S   S1        1.0  0.4999999999999999  0.24999999999999994  0.8803  1.0000
  S   S2        1.0  2.775557561562891e-17  0.24999999999999997  0.1303  1.0000
  S   S3        1.0  0.49999999999999994  0.7499999999999999  0.6303  1.0000
  S   S4        1.0  0.4999999999999999  0.7499999999999999  0.1197  1.0000
  S   S5        1.0  0.49999999999999994  0.24999999999999997  0.36970000000000003  1.0000
  S   S6        1.0  2.775557561562891e-17  0.7499999999999999  0.8697  1.0000
  S   S7        1.0  0.0  0.7499999999999999  0.38029999999999997  1.0000
  S   S8        1.0  0.0  0.24999999999999997  0.6197  1.0000
