data_image0
_chemical_formula_structural       La12Ir12O44
_chemical_formula_sum              "La12 Ir12 O44"
_cell_length_a       9.499
_cell_length_b       9.499
_cell_length_c       9.499
_cell_angle_alpha    90.0
_cell_angle_beta     90.0
_cell_angle_gamma    90.0

_space_group_name_H-M_alt    "P 1"
_space_group_IT_number       1

loop_
  _space_group_symop_operation_xyz
  'x, y, z'

loop_
  _atom_site_type_symbol
  _atom_site_label
  _atom_site_symmetry_multiplicity
  _atom_site_fract_x
  _atom_site_fract_y
  _atom_site_fract_z
  _atom_site_occupancy
  La  La1       1.0  0.0  0.0  0.0  1.0000
  La  La2       1.0  0.0  0.5  0.5  1.0000
  La  La3       1.0  0.5  0.0  0.5  1.0000
  La  La4       1.0  0.5  0.5  0.0  1.0000
  La  La5       1.0  0.38625  0.38625  0.38625  1.0000
  La  La6       1.0  0.38625  0.11375000000000002  0.11375000000000002  1.0000
  La  La7       1.0  0.11375000000000002  0.38625  0.11375000000000002  1.0000
  La  La8       1.0  0.11375000000000002  0.11375000000000002  0.38625  1.0000
  La  La9       1.0  0.61375  0.61375  0.61375  1.0000
  La  La10      1.0  0.61375  0.88625  0.88625  1.0000
  La  La11      1.0  0.88625  0.61375  0.88625  1.0000
  La  La12      1.0  0.88625  0.88625  0.61375  1.0000
  Ir  Ir1       1.0  0.4069  0.75  0.25  1.0000
  Ir  Ir2       1.0  0.09310000000000002  0.75  0.25  1.0000
  Ir  Ir3       1.0  0.75  0.25  0.4069  1.0000
  Ir  Ir4       1.0  0.75  0.25  0.09310000000000002  1.0000
  Ir  Ir5       1.0  0.25  0.4069  0.75  1.0000
  Ir  Ir6       1.0  0.25  0.09310000000000002  0.75  1.0000
  Ir  Ir7       1.0  0.5931  0.25  0.75  1.0000
  Ir  Ir8       1.0  0.9069  0.25  0.75  1.0000
  Ir  Ir9       1.0  0.25  0.75  0.5931  1.0000
  Ir  Ir10      1.0  0.25  0.75  0.9069  1.0000
  Ir  Ir11      1.0  0.75  0.5931  0.25  1.0000
  Ir  Ir12      1.0  0.75  0.9069  0.25  1.0000
  O   O1        1.0  0.6143  0.25  0.25  1.0000
  O   O2        1.0  0.8857000000000002  0.25  0.25  1.0000
  O   O3        1.0  0.25  0.25  0.6143  1.0000
  O   O4        1.0  0.25  0.25  0.8857000000000002  1.0000
  O   O5        1.0  0.25  0.6143  0.25  1.0000
  O   O6        1.0  0.25  0.8857000000000002  0.25  1.0000
  O   O7        1.0  0.38570000000000004  0.75  0.75  1.0000
  O   O8        1.0  0.11430000000000008  0.75  0.75  1.0000
  O   O9        1.0  0.75  0.75  0.38570000000000004  1.0000
  O   O10       1.0  0.75  0.75  0.11430000000000008  1.0000
  O   O11       1.0  0.75  0.38570000000000004  0.75  1.0000
  O   O12       1.0  0.75  0.11430000000000008  0.75  1.0000
  O   O13       1.0  0.1473  0.1473  0.1473  1.0000
  O   O14       1.0  0.1473  0.3527  0.3527  1.0000
  O   O15       1.0  0.3527  0.1473  0.3527  1.0000
  O   O16       1.0  0.3527  0.3527  0.1473  1.0000
  O   O17       1.0  0.8527  0.8527  0.8527  1.0000
  O   O18       1.0  0.8527  0.6473  0.6473  1.0000
  O   O19       1.0  0.6473  0.8527  0.6473  1.0000
  O   O20       1.0  0.6473  0.6473  0.8527  1.0000
  O   O21       1.0  0.5855000000000001  0.2515  0.5417  1.0000
  O   O22       1.0  0.5855000000000001  0.24850000000000003  0.9583  1.0000
  O   O23       1.0  0.9144999999999999  0.2515  0.9583  1.0000
  O   O24       1.0  0.9144999999999999  0.24850000000000003  0.5417  1.0000
  O   O25       1.0  0.2515  0.5417  0.5855000000000001  1.0000
  O   O26       1.0  0.24850000000000003  0.9583  0.5855000000000001  1.0000
  O   O27       1.0  0.2515  0.9583  0.9144999999999999  1.0000
  O   O28       1.0  0.24850000000000003  0.5417  0.9144999999999999  1.0000
  O   O29       1.0  0.5417  0.5855000000000001  0.2515  1.0000
  O   O30       1.0  0.9583  0.5855000000000001  0.24850000000000003  1.0000
  O   O31       1.0  0.9583  0.9144999999999999  0.2515  1.0000
  O   O32       1.0  0.5417  0.9144999999999999  0.24850000000000003  1.0000
  O   O33       1.0  0.41449999999999987  0.7484999999999999  0.45830000000000004  1.0000
  O   O34       1.0  0.41449999999999987  0.7515000000000001  0.04170000000000007  1.0000
  O   O35       1.0  0.08550000000000013  0.7484999999999999  0.04170000000000007  1.0000
  O   O36       1.0  0.08550000000000013  0.7515000000000001  0.45830000000000004  1.0000
  O   O37       1.0  0.7484999999999999  0.45830000000000004  0.41449999999999987  1.0000
  O   O38       1.0  0.7515000000000001  0.04170000000000007  0.41449999999999987  1.0000
  O   O39       1.0  0.7484999999999999  0.04170000000000007  0.08550000000000013  1.0000
  O   O40       1.0  0.7515000000000001  0.45830000000000004  0.08550000000000013  1.0000
  O   O41       1.0  0.45830000000000004  0.41449999999999987  0.7484999999999999  1.0000
  O   O42       1.0  0.04170000000000007  0.41449999999999987  0.7515000000000001  1.0000
  O   O43       1.0  0.04170000000000007  0.08550000000000013  0.7484999999999999  1.0000
  O   O44       1.0  0.45830000000000004  0.08550000000000013  0.7515000000000001  1.0000
