data_image0
_chemical_formula_structural       Bi16I4Ni16S4
_chemical_formula_sum              "Bi16 I4 Ni16 S4"
_cell_length_a       9.925
_cell_length_b       21.575
_cell_length_c       4.158
_cell_angle_alpha    90.0
_cell_angle_beta     90.0
_cell_angle_gamma    90.0

_space_group_name_H-M_alt    "P 1"
_space_group_IT_number       1

loop_
  _space_group_symop_operation_xyz
  'x, y, z'

loop_
  _atom_site_type_symbol
  _atom_site_label
  _atom_site_symmetry_multiplicity
  _atom_site_fract_x
  _atom_site_fract_y
  _atom_site_fract_z
  _atom_site_occupancy
  Bi  Bi1       1.0  0.87915  0.33402  0.0  1.0000
  Bi  Bi2       1.0  0.12085000000000001  0.66598  0.0  1.0000
  Bi  Bi3       1.0  0.62085  0.8340200000000001  0.5  1.0000
  Bi  Bi4       1.0  0.37915000000000004  0.16598000000000002  0.5  1.0000
  Bi  Bi5       1.0  0.64424  0.55283  0.0  1.0000
  Bi  Bi6       1.0  0.35575999999999997  0.44717  0.0  1.0000
  Bi  Bi7       1.0  0.85576  0.05283000000000016  0.5  1.0000
  Bi  Bi8       1.0  0.14423999999999992  0.94717  0.5  1.0000
  Bi  Bi9       1.0  0.66654  0.42087  0.5  1.0000
  Bi  Bi10      1.0  0.33346  0.5791299999999999  0.5  1.0000
  Bi  Bi11      1.0  0.83346  0.9208700000000001  0.0  1.0000
  Bi  Bi12      1.0  0.1665399999999999  0.07912999999999998  0.0  1.0000
  Bi  Bi13      1.0  0.17273000000000005  0.3436  0.5  1.0000
  Bi  Bi14      1.0  0.82727  0.6564  0.5  1.0000
  Bi  Bi15      1.0  0.32726999999999995  0.8436  0.0  1.0000
  Bi  Bi16      1.0  0.67273  0.15639999999999998  0.0  1.0000
  I   I1        1.0  0.505  0.70389  0.0  1.0000
  I   I2        1.0  0.495  0.29611  0.0  1.0000
  I   I3        1.0  0.9949999999999999  0.2038899999999999  0.5  1.0000
  I   I4        1.0  0.004999999999999893  0.79611  0.5  1.0000
  Ni  Ni1       1.0  0.939  0.4112  0.5  1.0000
  Ni  Ni2       1.0  0.06100000000000005  0.5888  0.5  1.0000
  Ni  Ni3       1.0  0.561  0.9112000000000001  0.0  1.0000
  Ni  Ni4       1.0  0.43900000000000006  0.08879999999999999  0.0  1.0000
  Ni  Ni5       1.0  0.08860000000000001  0.4143  0.0  1.0000
  Ni  Ni6       1.0  0.9114  0.5857  0.0  1.0000
  Ni  Ni7       1.0  0.4114  0.9143  0.5  1.0000
  Ni  Ni8       1.0  0.5886  0.0857  0.5  1.0000
  Ni  Ni9       1.0  0.8117999999999999  0.5299  0.5  1.0000
  Ni  Ni10      1.0  0.18820000000000014  0.47009999999999996  0.5  1.0000
  Ni  Ni11      1.0  0.6882000000000001  0.02990000000000004  0.0  1.0000
  Ni  Ni12      1.0  0.31179999999999986  0.9701  0.0  1.0000
  Ni  Ni13      1.0  0.8244  0.45840000000000003  0.0  1.0000
  Ni  Ni14      1.0  0.17559999999999998  0.5416  0.0  1.0000
  Ni  Ni15      1.0  0.6756  0.9584  0.5  1.0000
  Ni  Ni16      1.0  0.3244  0.04159999999999997  0.5  1.0000
  S   S1        1.0  0.0  0.5  0.24400000000000002  0.5000
  S   S2        1.0  0.5  0.0  0.256  0.5000
  S   S3        1.0  0.0  0.5  0.756  0.5000
  S   S4        1.0  0.5  0.0  0.744  0.5000
