data_image0
_chemical_formula_structural       Ge16K4O32
_chemical_formula_sum              "Ge16 K4 O32"
_cell_length_a       8.8978
_cell_length_b       13.7057
_cell_length_c       7.5532
_cell_angle_alpha    90.0
_cell_angle_beta     115.86700000000002
_cell_angle_gamma    90.0

_space_group_name_H-M_alt    "P 1"
_space_group_IT_number       1

loop_
  _space_group_symop_operation_xyz
  'x, y, z'

loop_
  _atom_site_type_symbol
  _atom_site_label
  _atom_site_symmetry_multiplicity
  _atom_site_fract_x
  _atom_site_fract_y
  _atom_site_fract_z
  _atom_site_occupancy
  Ge  Ge1       1.0  0.004859999999999998  0.18228  0.2232  0.6840
  Ge  Ge2       1.0  0.004859999999999998  0.81772  0.2232  0.6840
  Ge  Ge3       1.0  0.9951400000000001  0.81772  0.7768  0.6840
  Ge  Ge4       1.0  0.9951400000000001  0.18228  0.7768  0.6840
  Ge  Ge5       1.0  0.5048600000000001  0.6822799999999999  0.2232  0.6840
  Ge  Ge6       1.0  0.5048600000000001  0.31771999999999995  0.2232  0.6840
  Ge  Ge7       1.0  0.49514  0.31771999999999995  0.7768  0.6840
  Ge  Ge8       1.0  0.49514  0.6822799999999999  0.7768  0.6840
  Ge  Ge9       1.0  0.7001  0.11703999999999998  0.34405  0.8160
  Ge  Ge10      1.0  0.7001  0.88296  0.34405  0.8160
  Ge  Ge11      1.0  0.29990000000000006  0.88296  0.65595  0.8160
  Ge  Ge12      1.0  0.29990000000000006  0.11703999999999998  0.65595  0.8160
  Ge  Ge13      1.0  0.20009999999999994  0.6170399999999999  0.34405  0.8160
  Ge  Ge14      1.0  0.20009999999999994  0.38295999999999997  0.34405  0.8160
  Ge  Ge15      1.0  0.7999  0.38295999999999997  0.65595  0.8160
  Ge  Ge16      1.0  0.7999  0.6170399999999999  0.65595  0.8160
  K   K1        1.0  0.2756  0.0  0.1361  1.0000
  K   K2        1.0  0.7243999999999999  0.0  0.8639000000000001  1.0000
  K   K3        1.0  0.7756000000000002  0.49999999999999994  0.1361  1.0000
  K   K4        1.0  0.22440000000000002  0.49999999999999994  0.8639000000000001  1.0000
  O   O1        1.0  0.0  0.139  0.0  1.0000
  O   O2        1.0  0.0  0.861  0.0  1.0000
  O   O3        1.0  0.5  0.6389999999999999  0.0  1.0000
  O   O4        1.0  0.5  0.36099999999999993  0.0  1.0000
  O   O5        1.0  0.6111  0.0  0.2836  1.0000
  O   O6        1.0  0.3889000000000001  0.0  0.7164  1.0000
  O   O7        1.0  0.11109999999999998  0.49999999999999994  0.2836  1.0000
  O   O8        1.0  0.8889000000000002  0.49999999999999994  0.7164  1.0000
  O   O9        1.0  0.8144  0.13879999999999998  0.21120000000000005  1.0000
  O   O10       1.0  0.8144  0.8612  0.21120000000000005  1.0000
  O   O11       1.0  0.18560000000000001  0.8612  0.7888000000000001  1.0000
  O   O12       1.0  0.18560000000000001  0.13879999999999998  0.7888000000000001  1.0000
  O   O13       1.0  0.3144  0.6387999999999999  0.21120000000000005  1.0000
  O   O14       1.0  0.3144  0.3612  0.21120000000000005  1.0000
  O   O15       1.0  0.6856  0.3612  0.7888000000000001  1.0000
  O   O16       1.0  0.6856  0.6387999999999999  0.7888000000000001  1.0000
  O   O17       1.0  0.019800000000000026  0.3097  0.25880000000000003  1.0000
  O   O18       1.0  0.019800000000000026  0.6903  0.25880000000000003  1.0000
  O   O19       1.0  0.9802  0.6903  0.7412  1.0000
  O   O20       1.0  0.9802  0.3097  0.7412  1.0000
  O   O21       1.0  0.5198000000000002  0.8096999999999999  0.25880000000000003  1.0000
  O   O22       1.0  0.5198000000000002  0.1903  0.25880000000000003  1.0000
  O   O23       1.0  0.48019999999999996  0.1903  0.7412  1.0000
  O   O24       1.0  0.48019999999999996  0.8096999999999999  0.7412  1.0000
  O   O25       1.0  0.1827  0.1231  0.4020000000000001  1.0000
  O   O26       1.0  0.1827  0.8768999999999999  0.4020000000000001  1.0000
  O   O27       1.0  0.8173000000000002  0.8768999999999999  0.598  1.0000
  O   O28       1.0  0.8173000000000002  0.1231  0.598  1.0000
  O   O29       1.0  0.6826999999999999  0.6230999999999999  0.4020000000000001  1.0000
  O   O30       1.0  0.6826999999999999  0.3769  0.4020000000000001  1.0000
  O   O31       1.0  0.3173000000000001  0.3769  0.598  1.0000
  O   O32       1.0  0.3173000000000001  0.6230999999999999  0.598  1.0000
  Fe  Fe1       1.0  0.004859999999999998  0.18228  0.2232  0.3160
  Fe  Fe2       1.0  0.004859999999999998  0.81772  0.2232  0.3160
  Fe  Fe3       1.0  0.9951400000000001  0.81772  0.7768  0.3160
  Fe  Fe4       1.0  0.9951400000000001  0.18228  0.7768  0.3160
  Fe  Fe5       1.0  0.5048600000000001  0.6822799999999999  0.2232  0.3160
  Fe  Fe6       1.0  0.5048600000000001  0.31771999999999995  0.2232  0.3160
  Fe  Fe7       1.0  0.49514  0.31771999999999995  0.7768  0.3160
  Fe  Fe8       1.0  0.49514  0.6822799999999999  0.7768  0.3160
  Fe  Fe9       1.0  0.7001  0.11703999999999998  0.34405  0.1840
  Fe  Fe10      1.0  0.7001  0.88296  0.34405  0.1840
  Fe  Fe11      1.0  0.29990000000000006  0.88296  0.65595  0.1840
  Fe  Fe12      1.0  0.29990000000000006  0.11703999999999998  0.65595  0.1840
  Fe  Fe13      1.0  0.20009999999999994  0.6170399999999999  0.34405  0.1840
  Fe  Fe14      1.0  0.20009999999999994  0.38295999999999997  0.34405  0.1840
  Fe  Fe15      1.0  0.7999  0.38295999999999997  0.65595  0.1840
  Fe  Fe16      1.0  0.7999  0.6170399999999999  0.65595  0.1840
