data_image0
_chemical_formula_structural       La12Ga16Cl4
_chemical_formula_sum              "La12 Ga16 Cl4"
_cell_length_a       8.1955
_cell_length_b       8.1955
_cell_length_c       11.363
_cell_angle_alpha    90.0
_cell_angle_beta     90.0
_cell_angle_gamma    90.0

_space_group_name_H-M_alt    "P 1"
_space_group_IT_number       1

loop_
  _space_group_symop_operation_xyz
  'x, y, z'

loop_
  _atom_site_type_symbol
  _atom_site_label
  _atom_site_symmetry_multiplicity
  _atom_site_fract_x
  _atom_site_fract_y
  _atom_site_fract_z
  _atom_site_occupancy
  La  La1       1.0  0.0  0.0  0.25  1.0000
  La  La2       1.0  0.5  0.5  0.75  1.0000
  La  La3       1.0  0.0  0.0  0.75  1.0000
  La  La4       1.0  0.5  0.5  0.25  1.0000
  La  La5       1.0  0.33897  0.16103  0.5  1.0000
  La  La6       1.0  0.66103  0.8389700000000001  0.5  1.0000
  La  La7       1.0  0.8389700000000001  0.33897  0.5  1.0000
  La  La8       1.0  0.16103  0.66103  0.5  1.0000
  La  La9       1.0  0.66103  0.16103  0.0  1.0000
  La  La10      1.0  0.33897  0.8389700000000001  0.0  1.0000
  La  La11      1.0  0.16103  0.33897  0.0  1.0000
  La  La12      1.0  0.8389700000000001  0.66103  0.0  1.0000
  Ga  Ga1       1.0  0.35683  0.14317  0.19923999999999997  1.0000
  Ga  Ga2       1.0  0.64317  0.85683  0.19923999999999997  1.0000
  Ga  Ga3       1.0  0.85683  0.35683  0.19923999999999997  1.0000
  Ga  Ga4       1.0  0.14317  0.64317  0.19923999999999997  1.0000
  Ga  Ga5       1.0  0.64317  0.14317  0.30075999999999997  1.0000
  Ga  Ga6       1.0  0.35683  0.85683  0.30075999999999997  1.0000
  Ga  Ga7       1.0  0.14317  0.35683  0.30075999999999997  1.0000
  Ga  Ga8       1.0  0.85683  0.64317  0.30075999999999997  1.0000
  Ga  Ga9       1.0  0.85683  0.64317  0.69924  1.0000
  Ga  Ga10      1.0  0.14317000000000002  0.35683  0.69924  1.0000
  Ga  Ga11      1.0  0.35683  0.85683  0.69924  1.0000
  Ga  Ga12      1.0  0.64317  0.14317000000000002  0.69924  1.0000
  Ga  Ga13      1.0  0.14317000000000002  0.64317  0.80076  1.0000
  Ga  Ga14      1.0  0.85683  0.35683  0.80076  1.0000
  Ga  Ga15      1.0  0.64317  0.85683  0.80076  1.0000
  Ga  Ga16      1.0  0.35683  0.14317000000000002  0.80076  1.0000
  Cl  Cl1       1.0  0.0  0.0  0.0  1.0000
  Cl  Cl2       1.0  0.0  0.0  0.5  1.0000
  Cl  Cl3       1.0  0.5  0.5  0.5  1.0000
  Cl  Cl4       1.0  0.5  0.5  0.0  1.0000
