data_image0
_chemical_formula_structural       N4H16Al4F16
_chemical_formula_sum              "N4 H16 Al4 F16"
_cell_length_a       5.0564
_cell_length_b       5.0564
_cell_length_c       12.7113
_cell_angle_alpha    90.0
_cell_angle_beta     90.0
_cell_angle_gamma    90.0

_space_group_name_H-M_alt    "P 1"
_space_group_IT_number       1

loop_
  _space_group_symop_operation_xyz
  'x, y, z'

loop_
  _atom_site_type_symbol
  _atom_site_label
  _atom_site_symmetry_multiplicity
  _atom_site_fract_x
  _atom_site_fract_y
  _atom_site_fract_z
  _atom_site_occupancy
  N   N1        1.0  0.0  0.0  0.25  1.0000
  N   N2        1.0  0.0  0.0  0.75  1.0000
  N   N3        1.0  0.5  0.5  0.25  1.0000
  N   N4        1.0  0.5  0.5  0.75  1.0000
  H   H1        1.0  0.0017000000000000001  0.831  0.203  1.0000
  H   H2        1.0  0.16900000000000004  0.0017000000000000001  0.7030000000000001  1.0000
  H   H3        1.0  0.5017  0.669  0.203  1.0000
  H   H4        1.0  0.33099999999999996  0.5017  0.7030000000000001  1.0000
  H   H5        1.0  0.0017000000000000001  0.831  0.7969999999999999  1.0000
  H   H6        1.0  0.16900000000000004  0.0017000000000000001  0.297  1.0000
  H   H7        1.0  0.5017  0.669  0.7969999999999999  1.0000
  H   H8        1.0  0.33099999999999996  0.5017  0.297  1.0000
  H   H9        1.0  0.9982999999999999  0.16900000000000004  0.7969999999999999  1.0000
  H   H10       1.0  0.831  0.9982999999999999  0.297  1.0000
  H   H11       1.0  0.49829999999999997  0.33099999999999996  0.7969999999999999  1.0000
  H   H12       1.0  0.669  0.49829999999999997  0.297  1.0000
  H   H13       1.0  0.9982999999999999  0.16900000000000004  0.203  1.0000
  H   H14       1.0  0.831  0.9982999999999999  0.7030000000000001  1.0000
  H   H15       1.0  0.49829999999999997  0.33099999999999996  0.203  1.0000
  H   H16       1.0  0.669  0.49829999999999997  0.7030000000000001  1.0000
  Al  Al1       1.0  0.0  0.5  0.0  1.0000
  Al  Al2       1.0  0.5  0.0  0.5  1.0000
  Al  Al3       1.0  0.5  0.0  0.0  1.0000
  Al  Al4       1.0  0.0  0.5  0.5  1.0000
  F   F1        1.0  0.0  0.5  0.1394  1.0000
  F   F2        1.0  0.5  0.0  0.6394  1.0000
  F   F3        1.0  0.5  0.0  0.1394  1.0000
  F   F4        1.0  0.0  0.5  0.6394  1.0000
  F   F5        1.0  0.0  0.5  0.8606  1.0000
  F   F6        1.0  0.5  0.0  0.36060000000000003  1.0000
  F   F7        1.0  0.5  0.0  0.8606  1.0000
  F   F8        1.0  0.0  0.5  0.36060000000000003  1.0000
  F   F9        1.0  0.2957  0.298  0.0  1.0000
  F   F10       1.0  0.702  0.2957  0.5  1.0000
  F   F11       1.0  0.7957000000000001  0.202  0.0  1.0000
  F   F12       1.0  0.7979999999999999  0.7957000000000001  0.5  1.0000
  F   F13       1.0  0.7042999999999999  0.702  0.0  1.0000
  F   F14       1.0  0.298  0.7042999999999999  0.5  1.0000
  F   F15       1.0  0.20429999999999998  0.7979999999999999  0.0  1.0000
  F   F16       1.0  0.202  0.20429999999999998  0.5  1.0000
