data_image0
_chemical_formula_structural       S16Si4Fe8
_chemical_formula_sum              "S16 Si4 Fe8"
_cell_length_a       12.407
_cell_length_b       7.198
_cell_length_c       5.812
_cell_angle_alpha    90.0
_cell_angle_beta     90.0
_cell_angle_gamma    90.0

_space_group_name_H-M_alt    "P 1"
_space_group_IT_number       1

loop_
  _space_group_symop_operation_xyz
  'x, y, z'

loop_
  _atom_site_type_symbol
  _atom_site_label
  _atom_site_symmetry_multiplicity
  _atom_site_fract_x
  _atom_site_fract_y
  _atom_site_fract_z
  _atom_site_occupancy
  S   S1        1.0  0.4079  0.24999999999999994  0.7284  1.0000
  S   S2        1.0  0.9079  0.24999999999999997  0.7715999999999998  1.0000
  S   S3        1.0  0.5921000000000001  0.7499999999999999  0.27159999999999995  1.0000
  S   S4        1.0  0.09210000000000002  0.7499999999999999  0.22840000000000016  1.0000
  S   S5        1.0  0.5692  0.24999999999999994  0.2383  1.0000
  S   S6        1.0  0.06919999999999993  0.24999999999999997  0.2617  1.0000
  S   S7        1.0  0.43079999999999996  0.7499999999999999  0.7617  1.0000
  S   S8        1.0  0.9308  0.7499999999999999  0.7383  1.0000
  S   S9        1.0  0.3335000000000001  0.0173  0.2487  1.0000
  S   S10       1.0  0.8335000000000002  0.48269999999999996  0.25129999999999997  1.0000
  S   S11       1.0  0.6664999999999999  0.5173  0.7512999999999999  1.0000
  S   S12       1.0  0.16649999999999993  0.9827  0.7486999999999999  1.0000
  S   S13       1.0  0.6664999999999999  0.9827  0.7512999999999999  1.0000
  S   S14       1.0  0.16649999999999993  0.5173  0.7486999999999999  1.0000
  S   S15       1.0  0.3335000000000001  0.48269999999999996  0.2487  1.0000
  S   S16       1.0  0.8335000000000002  0.0173  0.25129999999999997  1.0000
  Si  Si1       1.0  0.4111  0.24999999999999994  0.0916  1.0000
  Si  Si2       1.0  0.9111000000000001  0.24999999999999997  0.40839999999999993  1.0000
  Si  Si3       1.0  0.5889  0.7499999999999999  0.9083999999999999  1.0000
  Si  Si4       1.0  0.08889999999999998  0.7499999999999999  0.5916  1.0000
  Fe  Fe1       1.0  0.0  0.0  0.0  1.0000
  Fe  Fe2       1.0  0.5  0.49999999999999994  0.5  1.0000
  Fe  Fe3       1.0  0.0  0.49999999999999994  0.0  1.0000
  Fe  Fe4       1.0  0.5  0.0  0.5  1.0000
  Fe  Fe5       1.0  0.2299  0.24999999999999994  0.5098  1.0000
  Fe  Fe6       1.0  0.7299  0.24999999999999997  0.9901999999999999  1.0000
  Fe  Fe7       1.0  0.7701000000000001  0.7499999999999999  0.49019999999999997  1.0000
  Fe  Fe8       1.0  0.2701  0.7499999999999999  0.009800000000000031  1.0000
