data_image0
_chemical_formula_structural       Mn4P8O28H4
_chemical_formula_sum              "Mn4 P8 O28 H4"
_cell_length_a       7.951
_cell_length_b       12.645
_cell_length_c       4.922
_cell_angle_alpha    90.0
_cell_angle_beta     100.92
_cell_angle_gamma    90.0

_space_group_name_H-M_alt    "P 1"
_space_group_IT_number       1

loop_
  _space_group_symop_operation_xyz
  'x, y, z'

loop_
  _atom_site_type_symbol
  _atom_site_label
  _atom_site_symmetry_multiplicity
  _atom_site_fract_x
  _atom_site_fract_y
  _atom_site_fract_z
  _atom_site_occupancy
  Mn  Mn1       1.0  0.9955399999999999  0.37443  0.1265  1.0000
  Mn  Mn2       1.0  0.49554  0.12557000000000001  0.6265000000000001  1.0000
  Mn  Mn3       1.0  0.0044599999999999935  0.62557  0.8734999999999999  1.0000
  Mn  Mn4       1.0  0.50446  0.87443  0.3735  1.0000
  P   P1        1.0  0.2509  0.46293999999999996  0.6525  1.0000
  P   P2        1.0  0.7508999999999999  0.03706000000000004  0.15249999999999986  1.0000
  P   P3        1.0  0.7491  0.5370600000000001  0.34750000000000003  1.0000
  P   P4        1.0  0.2491  0.9629399999999998  0.8475  1.0000
  P   P5        1.0  0.24230000000000002  0.17624  0.0625  1.0000
  P   P6        1.0  0.7423  0.32375999999999994  0.5625  1.0000
  P   P7        1.0  0.7577  0.82376  0.9375000000000001  1.0000
  P   P8        1.0  0.2577  0.67624  0.4375  1.0000
  O   O1        1.0  0.16299999999999998  0.0703  0.9085999999999999  1.0000
  O   O2        1.0  0.6629999999999999  0.4296999999999999  0.40859999999999985  1.0000
  O   O3        1.0  0.837  0.9297  0.09140000000000015  1.0000
  O   O4        1.0  0.337  0.5703  0.5914000000000001  1.0000
  O   O5        1.0  0.1983  0.40199999999999997  0.3868  1.0000
  O   O6        1.0  0.6983  0.09800000000000003  0.8868  1.0000
  O   O7        1.0  0.8017  0.5980000000000001  0.6132  1.0000
  O   O8        1.0  0.30169999999999997  0.9019999999999998  0.11320000000000002  1.0000
  O   O9        1.0  0.3901  0.2079  0.9280999999999999  1.0000
  O   O10       1.0  0.8900999999999999  0.2921  0.4281  1.0000
  O   O11       1.0  0.6099  0.7921  0.07190000000000007  1.0000
  O   O12       1.0  0.1099  0.7078999999999999  0.5719000000000001  1.0000
  O   O13       1.0  0.099  0.4875  0.7936  1.0000
  O   O14       1.0  0.599  0.012500000000000011  0.2936000000000001  1.0000
  O   O15       1.0  0.901  0.5125  0.20640000000000003  1.0000
  O   O16       1.0  0.401  0.9874999999999999  0.7064  1.0000
  O   O17       1.0  0.2937  0.149  0.3666  1.0000
  O   O18       1.0  0.7937000000000001  0.351  0.8665999999999999  1.0000
  O   O19       1.0  0.7062999999999998  0.851  0.6334  1.0000
  O   O20       1.0  0.20629999999999998  0.649  0.13340000000000002  1.0000
  O   O21       1.0  0.0943  0.2525  0.0032  1.0000
  O   O22       1.0  0.5943  0.2475  0.5032  1.0000
  O   O23       1.0  0.9057  0.7475  0.9968  1.0000
  O   O24       1.0  0.4057  0.7524999999999998  0.4968  1.0000
  O   O25       1.0  0.3968  0.4089999999999999  0.8463  1.0000
  O   O26       1.0  0.8968  0.09100000000000007  0.34630000000000005  1.0000
  O   O27       1.0  0.6032  0.5910000000000001  0.15369999999999995  1.0000
  O   O28       1.0  0.1032  0.9089999999999999  0.6537  1.0000
  H   H1        1.0  0.4059999999999998  0.342  0.85  1.0000
  H   H2        1.0  0.9059999999999999  0.15799999999999997  0.3500000000000001  1.0000
  H   H3        1.0  0.5940000000000001  0.6579999999999999  0.15000000000000002  1.0000
  H   H4        1.0  0.09400000000000008  0.8420000000000001  0.65  1.0000
