data_image0
_chemical_formula_structural       U2Ni14B8O32
_chemical_formula_sum              "U2 Ni14 B8 O32"
_cell_length_a       5.861
_cell_length_b       20.2
_cell_length_c       4.501
_cell_angle_alpha    90.0
_cell_angle_beta     90.0
_cell_angle_gamma    90.0

_space_group_name_H-M_alt    "P 1"
_space_group_IT_number       1

loop_
  _space_group_symop_operation_xyz
  'x, y, z'

loop_
  _atom_site_type_symbol
  _atom_site_label
  _atom_site_symmetry_multiplicity
  _atom_site_fract_x
  _atom_site_fract_y
  _atom_site_fract_z
  _atom_site_occupancy
  U   U1        1.0  0.0  0.0  0.0  1.0000
  U   U2        1.0  0.5  0.5  0.5  1.0000
  Ni  Ni1       1.0  0.0  0.5  0.0  1.0000
  Ni  Ni2       1.0  0.5  0.0  0.5  1.0000
  Ni  Ni3       1.0  0.0  0.2628  0.4996  1.0000
  Ni  Ni4       1.0  0.0  0.7372000000000001  0.5003999999999998  1.0000
  Ni  Ni5       1.0  0.5  0.23720000000000005  0.9996  1.0000
  Ni  Ni6       1.0  0.5  0.7627999999999999  0.00040000000000001146  1.0000
  Ni  Ni7       1.0  0.2488  0.1289  0.49799999999999994  1.0000
  Ni  Ni8       1.0  0.2488  0.8711  0.502  1.0000
  Ni  Ni9       1.0  0.2512  0.3711  0.998  1.0000
  Ni  Ni10      1.0  0.2512  0.6289  0.0020000000000000573  1.0000
  Ni  Ni11      1.0  0.7512  0.8711  0.502  1.0000
  Ni  Ni12      1.0  0.7512  0.1289  0.49799999999999994  1.0000
  Ni  Ni13      1.0  0.7488  0.6289  0.0020000000000000573  1.0000
  Ni  Ni14      1.0  0.7488  0.3711  0.998  1.0000
  B   B1        1.0  0.0  0.5874  0.5528  1.0000
  B   B2        1.0  0.0  0.41259999999999997  0.44720000000000004  1.0000
  B   B3        1.0  0.5  0.9126  0.05279999999999996  1.0000
  B   B4        1.0  0.5  0.08740000000000014  0.9471999999999999  1.0000
  B   B5        1.0  0.0  0.1921  0.051  1.0000
  B   B6        1.0  0.0  0.8079000000000002  0.949  1.0000
  B   B7        1.0  0.5  0.3079  0.551  1.0000
  B   B8        1.0  0.5  0.6920999999999999  0.449  1.0000
  O   O1        1.0  0.1981  0.20500000000000002  0.2041  1.0000
  O   O2        1.0  0.1981  0.7949999999999999  0.7959  1.0000
  O   O3        1.0  0.3019  0.295  0.7041  1.0000
  O   O4        1.0  0.3019  0.7050000000000001  0.2959  1.0000
  O   O5        1.0  0.8019  0.7949999999999999  0.7959  1.0000
  O   O6        1.0  0.8019  0.20500000000000002  0.2041  1.0000
  O   O7        1.0  0.6980999999999999  0.7050000000000001  0.2959  1.0000
  O   O8        1.0  0.6980999999999999  0.295  0.7041  1.0000
  O   O9        1.0  0.0  0.1765  0.7455  1.0000
  O   O10       1.0  0.0  0.8235  0.25449999999999995  1.0000
  O   O11       1.0  0.5  0.3235  0.24550000000000002  1.0000
  O   O12       1.0  0.5  0.6765  0.7545  1.0000
  O   O13       1.0  0.0  0.3466  0.2745999999999999  1.0000
  O   O14       1.0  0.0  0.6534  0.7253999999999999  1.0000
  O   O15       1.0  0.5  0.15339999999999998  0.7746  1.0000
  O   O16       1.0  0.5  0.8466000000000001  0.22540000000000004  1.0000
  O   O17       1.0  0.2911  0.051000000000000004  0.7846  1.0000
  O   O18       1.0  0.2911  0.949  0.21540000000000004  1.0000
  O   O19       1.0  0.20889999999999997  0.44900000000000007  0.28459999999999996  1.0000
  O   O20       1.0  0.20889999999999997  0.551  0.7154  1.0000
  O   O21       1.0  0.7089  0.949  0.21540000000000004  1.0000
  O   O22       1.0  0.7089  0.051000000000000004  0.7846  1.0000
  O   O23       1.0  0.7911  0.551  0.7154  1.0000
  O   O24       1.0  0.7911  0.44900000000000007  0.28459999999999996  1.0000
  O   O25       1.0  0.0  0.0704  0.28559999999999997  1.0000
  O   O26       1.0  0.0  0.9296  0.7144  1.0000
  O   O27       1.0  0.5  0.4295999999999999  0.7856  1.0000
  O   O28       1.0  0.5  0.5704  0.21440000000000003  1.0000
  O   O29       1.0  0.0  0.5859  0.2499  1.0000
  O   O30       1.0  0.0  0.4141  0.7501  1.0000
  O   O31       1.0  0.5  0.9141  0.7499  1.0000
  O   O32       1.0  0.5  0.08590000000000009  0.2501  1.0000
