data_image0
_chemical_formula_structural       Ag8V2O8
_chemical_formula_sum              "Ag8 V2 O8"
_cell_length_a       7.7095
_cell_length_b       7.7095
_cell_length_c       4.6714
_cell_angle_alpha    90.0
_cell_angle_beta     90.0
_cell_angle_gamma    90.0

_space_group_name_H-M_alt    "P 1"
_space_group_IT_number       1

loop_
  _space_group_symop_operation_xyz
  'x, y, z'

loop_
  _atom_site_type_symbol
  _atom_site_label
  _atom_site_symmetry_multiplicity
  _atom_site_fract_x
  _atom_site_fract_y
  _atom_site_fract_z
  _atom_site_occupancy
  Ag  Ag1       1.0  0.06963  0.33773  0.45853999999999995  0.7500
  Ag  Ag2       1.0  0.93037  0.6622699999999999  0.45853999999999995  0.7500
  Ag  Ag3       1.0  0.33773  0.93037  0.54146  0.7500
  Ag  Ag4       1.0  0.6622699999999999  0.06963  0.54146  0.7500
  Ag  Ag5       1.0  0.5696299999999999  0.83773  0.9585399999999998  0.7500
  Ag  Ag6       1.0  0.43037000000000003  0.16227  0.9585399999999998  0.7500
  Ag  Ag7       1.0  0.83773  0.43037000000000003  0.04146000000000005  0.7500
  Ag  Ag8       1.0  0.16227  0.5696299999999999  0.04146000000000005  0.7500
  V   V1        1.0  0.0  0.0  0.0  1.0000
  V   V2        1.0  0.49999999999999994  0.49999999999999994  0.5  1.0000
  O   O1        1.0  0.1633  0.08549999999999998  0.2103  1.0000
  O   O2        1.0  0.8367  0.9144999999999999  0.2103  1.0000
  O   O3        1.0  0.08549999999999998  0.8367  0.7897000000000001  1.0000
  O   O4        1.0  0.9144999999999999  0.1633  0.7897000000000001  1.0000
  O   O5        1.0  0.6632999999999999  0.5855  0.7102999999999998  1.0000
  O   O6        1.0  0.3367  0.4145  0.7102999999999998  1.0000
  O   O7        1.0  0.5855  0.3367  0.2897  1.0000
  O   O8        1.0  0.4145  0.6632999999999999  0.2897  1.0000
  Hg  Hg1       1.0  0.06963  0.33773  0.45853999999999995  0.2500
  Hg  Hg2       1.0  0.93037  0.6622699999999999  0.45853999999999995  0.2500
  Hg  Hg3       1.0  0.33773  0.93037  0.54146  0.2500
  Hg  Hg4       1.0  0.6622699999999999  0.06963  0.54146  0.2500
  Hg  Hg5       1.0  0.5696299999999999  0.83773  0.9585399999999998  0.2500
  Hg  Hg6       1.0  0.43037000000000003  0.16227  0.9585399999999998  0.2500
  Hg  Hg7       1.0  0.83773  0.43037000000000003  0.04146000000000005  0.2500
  Hg  Hg8       1.0  0.16227  0.5696299999999999  0.04146000000000005  0.2500
