data_image0
_chemical_formula_structural       Si4Zn8O20
_chemical_formula_sum              "Si4 Zn8 O20"
_cell_length_a       8.38
_cell_length_b       10.7
_cell_length_c       5.11
_cell_angle_alpha    90.0
_cell_angle_beta     90.0
_cell_angle_gamma    90.0

_space_group_name_H-M_alt    "P 1"
_space_group_IT_number       1

loop_
  _space_group_symop_operation_xyz
  'x, y, z'

loop_
  _atom_site_type_symbol
  _atom_site_label
  _atom_site_symmetry_multiplicity
  _atom_site_fract_x
  _atom_site_fract_y
  _atom_site_fract_z
  _atom_site_occupancy
  Si  Si1       1.0  0.0  0.16  0.0  1.0000
  Si  Si2       1.0  0.0  0.8400000000000001  0.0  1.0000
  Si  Si3       1.0  0.5  0.6600000000000001  0.5  1.0000
  Si  Si4       1.0  0.5  0.33999999999999997  0.5  1.0000
  Zn  Zn1       1.0  0.3  0.3420000000000001  0.01  1.0000
  Zn  Zn2       1.0  0.7000000000000001  0.6579999999999999  0.01  1.0000
  Zn  Zn3       1.0  0.7000000000000001  0.3420000000000001  0.01  1.0000
  Zn  Zn4       1.0  0.3  0.6579999999999999  0.01  1.0000
  Zn  Zn5       1.0  0.8  0.8420000000000001  0.51  1.0000
  Zn  Zn6       1.0  0.2  0.15799999999999992  0.51  1.0000
  Zn  Zn7       1.0  0.2  0.8420000000000001  0.51  1.0000
  Zn  Zn8       1.0  0.8  0.15799999999999992  0.51  1.0000
  O   O1        1.0  0.0  0.0  0.0  1.0000
  O   O2        1.0  0.5  0.5  0.5  1.0000
  O   O3        1.0  0.16100000000000006  0.187  0.8500000000000001  1.0000
  O   O4        1.0  0.839  0.8130000000000001  0.8500000000000001  1.0000
  O   O5        1.0  0.839  0.187  0.8500000000000001  1.0000
  O   O6        1.0  0.16100000000000006  0.8130000000000001  0.8500000000000001  1.0000
  O   O7        1.0  0.661  0.687  0.3500000000000001  1.0000
  O   O8        1.0  0.33899999999999997  0.31300000000000006  0.3500000000000001  1.0000
  O   O9        1.0  0.33899999999999997  0.687  0.3500000000000001  1.0000
  O   O10       1.0  0.661  0.31300000000000006  0.3500000000000001  1.0000
  O   O11       1.0  0.0  0.187  0.305  1.0000
  O   O12       1.0  0.0  0.8130000000000001  0.305  1.0000
  O   O13       1.0  0.5  0.687  0.8049999999999999  1.0000
  O   O14       1.0  0.5  0.31300000000000006  0.8049999999999999  1.0000
  O   O15       1.0  0.25  0.5  0.8500000000000001  1.0000
  O   O16       1.0  0.75  0.5  0.8500000000000001  1.0000
  O   O17       1.0  0.75  0.0  0.3500000000000001  1.0000
  O   O18       1.0  0.25  0.0  0.3500000000000001  1.0000
  O   O19       1.0  0.0  0.5  0.35  1.0000
  O   O20       1.0  0.5  0.0  0.8500000000000001  1.0000
