data_image0
_chemical_formula_structural       Tc8Cl8
_chemical_formula_sum              "Tc8 Cl8"
_cell_length_a       8.557
_cell_length_b       8.557
_cell_length_c       3.417
_cell_angle_alpha    90.0
_cell_angle_beta     90.0
_cell_angle_gamma    90.0

_space_group_name_H-M_alt    "P 1"
_space_group_IT_number       1

loop_
  _space_group_symop_operation_xyz
  'x, y, z'

loop_
  _atom_site_type_symbol
  _atom_site_label
  _atom_site_symmetry_multiplicity
  _atom_site_fract_x
  _atom_site_fract_y
  _atom_site_fract_z
  _atom_site_occupancy
  Tc  Tc1       1.0  0.06287000000000002  0.10728  0.0  0.5000
  Tc  Tc2       1.0  0.93713  0.89272  0.0  0.5000
  Tc  Tc3       1.0  0.89272  0.06287000000000002  0.0  0.5000
  Tc  Tc4       1.0  0.10728  0.93713  0.0  0.5000
  Tc  Tc5       1.0  0.56287  0.60728  0.5  0.5000
  Tc  Tc6       1.0  0.43713  0.39272  0.5  0.5000
  Tc  Tc7       1.0  0.39272  0.56287  0.5  0.5000
  Tc  Tc8       1.0  0.60728  0.43713  0.5  0.5000
  Cl  Cl1       1.0  0.25404000000000004  0.06575  0.5  1.0000
  Cl  Cl2       1.0  0.7459600000000001  0.93425  0.5  1.0000
  Cl  Cl3       1.0  0.93425  0.25404000000000004  0.5  1.0000
  Cl  Cl4       1.0  0.06575  0.7459600000000001  0.5  1.0000
  Cl  Cl5       1.0  0.75404  0.56575  0.0  1.0000
  Cl  Cl6       1.0  0.24595999999999996  0.4342500000000001  0.0  1.0000
  Cl  Cl7       1.0  0.4342500000000001  0.75404  0.0  1.0000
  Cl  Cl8       1.0  0.56575  0.24595999999999996  0.0  1.0000
