data_image0
_chemical_formula_structural       Ta12Br60
_chemical_formula_sum              "Ta12 Br60"
_cell_length_a       19.433
_cell_length_b       18.775
_cell_length_c       6.203399999999999
_cell_angle_alpha    90.0
_cell_angle_beta     90.71600000000001
_cell_angle_gamma    90.0

_space_group_name_H-M_alt    "P 1"
_space_group_IT_number       1

loop_
  _space_group_symop_operation_xyz
  'x, y, z'

loop_
  _atom_site_type_symbol
  _atom_site_label
  _atom_site_symmetry_multiplicity
  _atom_site_fract_x
  _atom_site_fract_y
  _atom_site_fract_z
  _atom_site_occupancy
  Ta  Ta1       1.0  0.0  0.38934  0.5  1.0000
  Ta  Ta2       1.0  0.5  0.8893400000000001  0.5  1.0000
  Ta  Ta3       1.0  0.0  0.6106600000000001  0.5  1.0000
  Ta  Ta4       1.0  0.5  0.11065999999999998  0.5  1.0000
  Ta  Ta5       1.0  0.66677  0.38928  0.9790900000000002  1.0000
  Ta  Ta6       1.0  0.33323  0.38928  0.020909999999999873  1.0000
  Ta  Ta7       1.0  0.16677000000000008  0.88928  0.9790900000000002  1.0000
  Ta  Ta8       1.0  0.83323  0.88928  0.020909999999999873  1.0000
  Ta  Ta9       1.0  0.33323  0.6107199999999999  0.020909999999999873  1.0000
  Ta  Ta10      1.0  0.66677  0.6107199999999999  0.9790900000000002  1.0000
  Ta  Ta11      1.0  0.83323  0.11072  0.020909999999999873  1.0000
  Ta  Ta12      1.0  0.16677000000000008  0.11072  0.9790900000000002  1.0000
  Br  Br1       1.0  0.6142199999999999  0.5  0.20340000000000005  1.0000
  Br  Br2       1.0  0.3857800000000001  0.5  0.7966000000000001  1.0000
  Br  Br3       1.0  0.11421999999999999  0.0  0.20340000000000005  1.0000
  Br  Br4       1.0  0.88578  0.0  0.7966000000000001  1.0000
  Br  Br5       1.0  0.61078  0.30802  0.22100000000000009  1.0000
  Br  Br6       1.0  0.38922  0.30802  0.779  1.0000
  Br  Br7       1.0  0.11078000000000009  0.80802  0.22100000000000009  1.0000
  Br  Br8       1.0  0.8892199999999999  0.80802  0.779  1.0000
  Br  Br9       1.0  0.38922  0.69198  0.779  1.0000
  Br  Br10      1.0  0.61078  0.69198  0.22100000000000009  1.0000
  Br  Br11      1.0  0.8892199999999999  0.19197999999999998  0.779  1.0000
  Br  Br12      1.0  0.11078000000000009  0.19197999999999998  0.22100000000000009  1.0000
  Br  Br13      1.0  0.56469  0.4016700000000001  0.7436  1.0000
  Br  Br14      1.0  0.43531  0.4016700000000001  0.25639999999999996  1.0000
  Br  Br15      1.0  0.06469000000000014  0.9016700000000001  0.7436  1.0000
  Br  Br16      1.0  0.93531  0.9016700000000001  0.25639999999999996  1.0000
  Br  Br17      1.0  0.43531  0.5983299999999999  0.25639999999999996  1.0000
  Br  Br18      1.0  0.56469  0.5983299999999999  0.7436  1.0000
  Br  Br19      1.0  0.93531  0.09832999999999992  0.25639999999999996  1.0000
  Br  Br20      1.0  0.06469000000000014  0.09832999999999992  0.7436  1.0000
  Br  Br21      1.0  0.72279  0.30797  0.7378000000000001  1.0000
  Br  Br22      1.0  0.27720999999999996  0.30797  0.2621999999999999  1.0000
  Br  Br23      1.0  0.22279000000000002  0.8079700000000001  0.7378000000000001  1.0000
  Br  Br24      1.0  0.77721  0.8079700000000001  0.2621999999999999  1.0000
  Br  Br25      1.0  0.27720999999999996  0.6920299999999999  0.2621999999999999  1.0000
  Br  Br26      1.0  0.72279  0.6920299999999999  0.7378000000000001  1.0000
  Br  Br27      1.0  0.77721  0.19202999999999998  0.2621999999999999  1.0000
  Br  Br28      1.0  0.22279000000000002  0.19202999999999998  0.7378000000000001  1.0000
  Br  Br29      1.0  0.7190299999999998  0.5  0.7544000000000002  1.0000
  Br  Br30      1.0  0.2809700000000001  0.5  0.24559999999999993  1.0000
  Br  Br31      1.0  0.21902999999999986  0.0  0.7544000000000002  1.0000
  Br  Br32      1.0  0.7809700000000002  0.0  0.24559999999999993  1.0000
  Br  Br33      1.0  0.89789  0.40192  0.7271  1.0000
  Br  Br34      1.0  0.10211000000000002  0.40192  0.27290000000000003  1.0000
  Br  Br35      1.0  0.39788999999999985  0.9019199999999999  0.7271  1.0000
  Br  Br36      1.0  0.60211  0.9019199999999999  0.27290000000000003  1.0000
  Br  Br37      1.0  0.10211000000000002  0.59808  0.27290000000000003  1.0000
  Br  Br38      1.0  0.89789  0.59808  0.7271  1.0000
  Br  Br39      1.0  0.60211  0.09808  0.27290000000000003  1.0000
  Br  Br40      1.0  0.39788999999999985  0.09808  0.7271  1.0000
  Br  Br41      1.0  0.769  0.40188  0.21430000000000016  1.0000
  Br  Br42      1.0  0.23099999999999998  0.40188  0.7857  1.0000
  Br  Br43      1.0  0.26900000000000013  0.9018800000000001  0.21430000000000016  1.0000
  Br  Br44      1.0  0.731  0.9018800000000001  0.7857  1.0000
  Br  Br45      1.0  0.23099999999999998  0.59812  0.7857  1.0000
  Br  Br46      1.0  0.769  0.59812  0.21430000000000016  1.0000
  Br  Br47      1.0  0.731  0.09811999999999999  0.7857  1.0000
  Br  Br48      1.0  0.26900000000000013  0.09811999999999999  0.21430000000000016  1.0000
  Br  Br49      1.0  0.05614000000000008  0.30768  0.7446000000000003  1.0000
  Br  Br50      1.0  0.9438599999999999  0.30768  0.25539999999999985  1.0000
  Br  Br51      1.0  0.5561400000000001  0.80768  0.7446000000000003  1.0000
  Br  Br52      1.0  0.4438599999999999  0.80768  0.25539999999999985  1.0000
  Br  Br53      1.0  0.9438599999999999  0.69232  0.25539999999999985  1.0000
  Br  Br54      1.0  0.05614000000000008  0.69232  0.7446000000000003  1.0000
  Br  Br55      1.0  0.4438599999999999  0.19232  0.25539999999999985  1.0000
  Br  Br56      1.0  0.5561400000000001  0.19232  0.7446000000000003  1.0000
  Br  Br57      1.0  0.0524500000000001  0.5  0.7294  1.0000
  Br  Br58      1.0  0.9475499999999999  0.5  0.27059999999999995  1.0000
  Br  Br59      1.0  0.5524500000000001  0.0  0.7294  1.0000
  Br  Br60      1.0  0.4475499999999999  0.0  0.27059999999999995  1.0000
