data_image0
_chemical_formula_structural       Mn2C8
_chemical_formula_sum              "Mn2 C8"
_cell_length_a       6.14879
_cell_length_b       6.14879
_cell_length_c       6.14879
_cell_angle_alpha    90.0
_cell_angle_beta     90.0
_cell_angle_gamma    90.0

_space_group_name_H-M_alt    "P 1"
_space_group_IT_number       1

loop_
  _space_group_symop_operation_xyz
  'x, y, z'

loop_
  _atom_site_type_symbol
  _atom_site_label
  _atom_site_symmetry_multiplicity
  _atom_site_fract_x
  _atom_site_fract_y
  _atom_site_fract_z
  _atom_site_occupancy
  Mn  Mn1       1.0  0.0  0.0  0.0  1.0010
  Mn  Mn2       1.0  0.49999999999999994  0.49999999999999994  0.49999999999999994  1.0010
  C   C1        1.0  0.19536  0.19536  0.19536  0.5000
  C   C2        1.0  0.30464  0.6953599999999999  0.6953599999999999  0.5000
  C   C3        1.0  0.80464  0.80464  0.19536  0.5000
  C   C4        1.0  0.6953599999999999  0.30464  0.6953599999999999  0.5000
  C   C5        1.0  0.19536  0.80464  0.80464  0.5000
  C   C6        1.0  0.6953599999999999  0.6953599999999999  0.30464  0.5000
  C   C7        1.0  0.80464  0.19536  0.80464  0.5000
  C   C8        1.0  0.30464  0.30464  0.30464  0.5000
  N   N1        1.0  0.19536  0.19536  0.19536  0.5000
  N   N2        1.0  0.30464  0.6953599999999999  0.6953599999999999  0.5000
  N   N3        1.0  0.80464  0.80464  0.19536  0.5000
  N   N4        1.0  0.6953599999999999  0.30464  0.6953599999999999  0.5000
  N   N5        1.0  0.19536  0.80464  0.80464  0.5000
  N   N6        1.0  0.6953599999999999  0.6953599999999999  0.30464  0.5000
  N   N7        1.0  0.80464  0.19536  0.80464  0.5000
  N   N8        1.0  0.30464  0.30464  0.30464  0.5000
