data_image0
_chemical_formula_structural       Co4V8Co16P32O112
_chemical_formula_sum              "Co20 V8 P32 O112"
_cell_length_a       8.3551
_cell_length_b       9.7067
_cell_length_c       23.8555
_cell_angle_alpha    90.0
_cell_angle_beta     90.0
_cell_angle_gamma    90.0

_space_group_name_H-M_alt    "P 1"
_space_group_IT_number       1

loop_
  _space_group_symop_operation_xyz
  'x, y, z'

loop_
  _atom_site_type_symbol
  _atom_site_label
  _atom_site_symmetry_multiplicity
  _atom_site_fract_x
  _atom_site_fract_y
  _atom_site_fract_z
  _atom_site_occupancy
  Co  Co1       1.0  0.91823  0.0  0.5  1.0000
  Co  Co2       1.0  0.08177  0.0  0.0  1.0000
  Co  Co3       1.0  0.41823  0.5  0.5  1.0000
  Co  Co4       1.0  0.58177  0.5  0.0  1.0000
  V   V1        1.0  0.93003  0.6444200000000001  0.6193500000000001  0.6548
  V   V2        1.0  0.06997  0.35558  0.11935000000000003  0.6548
  V   V3        1.0  0.93003  0.35558  0.38065  0.6548
  V   V4        1.0  0.06997  0.6444200000000001  0.88065  0.6548
  V   V5        1.0  0.43003  0.14442  0.6193500000000001  0.6548
  V   V6        1.0  0.5699700000000001  0.85558  0.11935000000000003  0.6548
  V   V7        1.0  0.43003  0.85558  0.38065  0.6548
  V   V8        1.0  0.5699700000000001  0.14442  0.88065  0.6548
  Co  Co5       1.0  0.29241  0.0  0.5  0.9340
  Co  Co6       1.0  0.70759  0.0  0.0  0.9340
  Co  Co7       1.0  0.7924100000000001  0.5  0.5  0.9340
  Co  Co8       1.0  0.20759  0.5  0.0  0.9340
  Co  Co9       1.0  0.0  0.28018999999999994  0.75  0.7200
  Co  Co10      1.0  0.0  0.7198100000000001  0.25  0.7200
  Co  Co11      1.0  0.5  0.7801899999999999  0.75  0.7200
  Co  Co12      1.0  0.5  0.2198100000000001  0.25  0.7200
  Co  Co13      1.0  0.31161  0.6398900000000001  0.6415200000000001  0.8270
  Co  Co14      1.0  0.6883900000000001  0.36011  0.14151999999999998  0.8270
  Co  Co15      1.0  0.31161  0.36011  0.35848  0.8270
  Co  Co16      1.0  0.6883900000000001  0.6398900000000001  0.8584800000000001  0.8270
  Co  Co17      1.0  0.8116099999999999  0.13989000000000001  0.6415200000000001  0.8270
  Co  Co18      1.0  0.18839000000000003  0.8601099999999999  0.14151999999999998  0.8270
  Co  Co19      1.0  0.8116099999999999  0.8601099999999999  0.35848  0.8270
  Co  Co20      1.0  0.18839000000000003  0.13989000000000001  0.8584800000000001  0.8270
  P   P1        1.0  0.09658  0.70614  0.50088  1.0000
  P   P2        1.0  0.90342  0.29386000000000007  0.0008799999999999365  1.0000
  P   P3        1.0  0.09658  0.29386000000000007  0.4991200000000001  1.0000
  P   P4        1.0  0.90342  0.70614  0.9991200000000001  1.0000
  P   P5        1.0  0.59658  0.20613999999999993  0.50088  1.0000
  P   P6        1.0  0.40342  0.79386  0.0008799999999999365  1.0000
  P   P7        1.0  0.59658  0.79386  0.4991200000000001  1.0000
  P   P8        1.0  0.40342  0.20613999999999993  0.9991200000000001  1.0000
  P   P9        1.0  0.11867000000000003  0.94377  0.6244500000000001  1.0000
  P   P10       1.0  0.88133  0.05623  0.12444999999999996  1.0000
  P   P11       1.0  0.11867000000000003  0.05623  0.37555000000000005  1.0000
  P   P12       1.0  0.88133  0.94377  0.87555  1.0000
  P   P13       1.0  0.61867  0.44377  0.6244500000000001  1.0000
  P   P14       1.0  0.38133  0.55623  0.12444999999999996  1.0000
  P   P15       1.0  0.61867  0.55623  0.37555000000000005  1.0000
  P   P16       1.0  0.38133  0.44377  0.87555  1.0000
  P   P17       1.0  0.10814  0.35302999999999995  0.62004  1.0000
  P   P18       1.0  0.89186  0.64697  0.12003999999999994  1.0000
  P   P19       1.0  0.10814  0.64697  0.3799600000000001  1.0000
  P   P20       1.0  0.89186  0.35302999999999995  0.8799600000000001  1.0000
  P   P21       1.0  0.60814  0.8530300000000001  0.62004  1.0000
  P   P22       1.0  0.39186  0.14697000000000005  0.12003999999999994  1.0000
  P   P23       1.0  0.60814  0.14697000000000005  0.3799600000000001  1.0000
  P   P24       1.0  0.39186  0.8530300000000001  0.8799600000000001  1.0000
  P   P25       1.0  0.23708  0.53833  0.76942  1.0000
  P   P26       1.0  0.76292  0.4616700000000001  0.26942  1.0000
  P   P27       1.0  0.23708  0.4616700000000001  0.23058000000000003  1.0000
  P   P28       1.0  0.76292  0.53833  0.7305800000000001  1.0000
  P   P29       1.0  0.73708  0.03832999999999992  0.76942  1.0000
  P   P30       1.0  0.26292  0.9616700000000001  0.26942  1.0000
  P   P31       1.0  0.73708  0.9616700000000001  0.23058000000000003  1.0000
  P   P32       1.0  0.26292  0.03832999999999992  0.7305800000000001  1.0000
  O   O1        1.0  0.1176  0.5105  0.62638  1.0000
  O   O2        1.0  0.8824  0.4895  0.12638  1.0000
  O   O3        1.0  0.1176  0.4895  0.37362  1.0000
  O   O4        1.0  0.8824  0.5105  0.8736200000000002  1.0000
  O   O5        1.0  0.6176  0.01050000000000001  0.62638  1.0000
  O   O6        1.0  0.3824  0.9895  0.12638  1.0000
  O   O7        1.0  0.6176  0.9895  0.37362  1.0000
  O   O8        1.0  0.3824  0.01050000000000001  0.8736200000000002  1.0000
  O   O9        1.0  0.1166  0.7865000000000001  0.62653  1.0000
  O   O10       1.0  0.8834  0.2135  0.12652999999999998  1.0000
  O   O11       1.0  0.1166  0.2135  0.37347  1.0000
  O   O12       1.0  0.8834  0.7865000000000001  0.8734700000000001  1.0000
  O   O13       1.0  0.6166000000000001  0.2865  0.62653  1.0000
  O   O14       1.0  0.3834  0.7135  0.12652999999999998  1.0000
  O   O15       1.0  0.6166000000000001  0.7135  0.37347  1.0000
  O   O16       1.0  0.3834  0.2865  0.8734700000000001  1.0000
  O   O17       1.0  0.1028  0.8622  0.5040700000000001  1.0000
  O   O18       1.0  0.8972  0.1378  0.004070000000000019  1.0000
  O   O19       1.0  0.1028  0.1378  0.49593  1.0000
  O   O20       1.0  0.8972  0.8622  0.99593  1.0000
  O   O21       1.0  0.6028  0.36219999999999997  0.5040700000000001  1.0000
  O   O22       1.0  0.3972  0.6378000000000001  0.004070000000000019  1.0000
  O   O23       1.0  0.6028  0.6378000000000001  0.49593  1.0000
  O   O24       1.0  0.3972  0.36219999999999997  0.99593  1.0000
  O   O25       1.0  0.1778  0.41150000000000003  0.74098  1.0000
  O   O26       1.0  0.8222  0.5885  0.24098000000000003  1.0000
  O   O27       1.0  0.1778  0.5885  0.25902  1.0000
  O   O28       1.0  0.8222  0.41150000000000003  0.7590200000000001  1.0000
  O   O29       1.0  0.6778  0.9115  0.74098  1.0000
  O   O30       1.0  0.3222  0.08850000000000002  0.24098000000000003  1.0000
  O   O31       1.0  0.6778  0.08850000000000002  0.25902  1.0000
  O   O32       1.0  0.3222  0.9115  0.7590200000000001  1.0000
  O   O33       1.0  0.0296  0.669  0.44004000000000004  1.0000
  O   O34       1.0  0.9704  0.33100000000000007  0.9400400000000001  1.0000
  O   O35       1.0  0.0296  0.33100000000000007  0.55996  1.0000
  O   O36       1.0  0.9704  0.669  0.05996000000000002  1.0000
  O   O37       1.0  0.5296000000000001  0.16899999999999993  0.44004000000000004  1.0000
  O   O38       1.0  0.4704  0.8310000000000002  0.9400400000000001  1.0000
  O   O39       1.0  0.5296000000000001  0.8310000000000002  0.55996  1.0000
  O   O40       1.0  0.4704  0.16899999999999993  0.05996000000000002  1.0000
  O   O41       1.0  0.7701  0.4952  0.5949800000000001  1.0000
  O   O42       1.0  0.2299  0.5048  0.09498000000000001  1.0000
  O   O43       1.0  0.7701  0.5048  0.40502  1.0000
  O   O44       1.0  0.2299  0.4952  0.90502  1.0000
  O   O45       1.0  0.2701  0.9952000000000001  0.5949800000000001  1.0000
  O   O46       1.0  0.7299  0.0047999999999999154  0.09498000000000001  1.0000
  O   O47       1.0  0.2701  0.0047999999999999154  0.40502  1.0000
  O   O48       1.0  0.7299  0.9952000000000001  0.90502  1.0000
  O   O49       1.0  0.8287000000000001  0.13160000000000005  0.72829  1.0000
  O   O50       1.0  0.1713  0.8684  0.22828999999999997  1.0000
  O   O51       1.0  0.8287000000000001  0.8684  0.27171000000000006  1.0000
  O   O52       1.0  0.1713  0.13160000000000005  0.7717100000000001  1.0000
  O   O53       1.0  0.3287  0.6316  0.72829  1.0000
  O   O54       1.0  0.6713  0.36839999999999984  0.22828999999999997  1.0000
  O   O55       1.0  0.3287  0.36839999999999984  0.27171000000000006  1.0000
  O   O56       1.0  0.6713  0.6316  0.7717100000000001  1.0000
  O   O57       1.0  0.9890000000000001  0.2875  0.66009  1.0000
  O   O58       1.0  0.011  0.7125  0.16008999999999998  1.0000
  O   O59       1.0  0.9890000000000001  0.7125  0.3399100000000001  1.0000
  O   O60       1.0  0.011  0.2875  0.8399100000000002  1.0000
  O   O61       1.0  0.489  0.7875  0.66009  1.0000
  O   O62       1.0  0.511  0.21249999999999994  0.16008999999999998  1.0000
  O   O63       1.0  0.489  0.21249999999999994  0.3399100000000001  1.0000
  O   O64       1.0  0.511  0.7875  0.8399100000000002  1.0000
  O   O65       1.0  0.1241  0.9949  0.6874000000000001  1.0000
  O   O66       1.0  0.8759  0.0051  0.18739999999999998  1.0000
  O   O67       1.0  0.1241  0.0051  0.31260000000000004  1.0000
  O   O68       1.0  0.8759  0.9949  0.8126  1.0000
  O   O69       1.0  0.6241  0.49490000000000006  0.6874000000000001  1.0000
  O   O70       1.0  0.3759  0.5051  0.18739999999999998  1.0000
  O   O71       1.0  0.6241  0.5051  0.31260000000000004  1.0000
  O   O72       1.0  0.3759  0.49490000000000006  0.8126  1.0000
  O   O73       1.0  0.9604  0.6438999999999999  0.53574  1.0000
  O   O74       1.0  0.0396  0.3561000000000001  0.03574  1.0000
  O   O75       1.0  0.9604  0.3561000000000001  0.46426  1.0000
  O   O76       1.0  0.0396  0.6438999999999999  0.9642600000000001  1.0000
  O   O77       1.0  0.46040000000000003  0.14389999999999992  0.53574  1.0000
  O   O78       1.0  0.5396  0.8561000000000001  0.03574  1.0000
  O   O79       1.0  0.46040000000000003  0.8561000000000001  0.46426  1.0000
  O   O80       1.0  0.5396  0.14389999999999992  0.9642600000000001  1.0000
  O   O81       1.0  0.7556  0.143  0.51332  1.0000
  O   O82       1.0  0.2444  0.857  0.013319999999999999  1.0000
  O   O83       1.0  0.7556  0.857  0.48668  1.0000
  O   O84       1.0  0.2444  0.143  0.9866800000000001  1.0000
  O   O85       1.0  0.2556  0.643  0.51332  1.0000
  O   O86       1.0  0.7444  0.357  0.013319999999999999  1.0000
  O   O87       1.0  0.2556  0.357  0.48668  1.0000
  O   O88       1.0  0.7444  0.643  0.9866800000000001  1.0000
  O   O89       1.0  0.468  0.5092999999999999  0.60066  1.0000
  O   O90       1.0  0.532  0.4907000000000001  0.10066000000000004  1.0000
  O   O91       1.0  0.468  0.4907000000000001  0.39934  1.0000
  O   O92       1.0  0.532  0.5092999999999999  0.8993400000000001  1.0000
  O   O93       1.0  0.968  0.00929999999999992  0.60066  1.0000
  O   O94       1.0  0.03199999999999997  0.9907000000000002  0.10066000000000004  1.0000
  O   O95       1.0  0.968  0.9907000000000002  0.39934  1.0000
  O   O96       1.0  0.03199999999999997  0.00929999999999992  0.8993400000000001  1.0000
  O   O97       1.0  0.7698  0.7887  0.6187000000000001  1.0000
  O   O98       1.0  0.23020000000000004  0.2113  0.11870000000000003  1.0000
  O   O99       1.0  0.7698  0.2113  0.3813  1.0000
  O   O100      1.0  0.23020000000000004  0.7887  0.8813000000000001  1.0000
  O   O101      1.0  0.2698  0.2887  0.6187000000000001  1.0000
  O   O102      1.0  0.7302  0.7113  0.11870000000000003  1.0000
  O   O103      1.0  0.2698  0.7113  0.3813  1.0000
  O   O104      1.0  0.7302  0.2887  0.8813000000000001  1.0000
  O   O105      1.0  0.1101  0.6151  0.80228  1.0000
  O   O106      1.0  0.8899  0.3849  0.30228000000000005  1.0000
  O   O107      1.0  0.1101  0.3849  0.19772  1.0000
  O   O108      1.0  0.8899  0.6151  0.6977200000000001  1.0000
  O   O109      1.0  0.6101  0.11509999999999998  0.80228  1.0000
  O   O110      1.0  0.3899000000000001  0.8849  0.30228000000000005  1.0000
  O   O111      1.0  0.6101  0.8849  0.19772  1.0000
  O   O112      1.0  0.3899000000000001  0.11509999999999998  0.6977200000000001  1.0000
  Co  Co21      1.0  0.93003  0.6444200000000001  0.6193500000000001  0.3452
  Co  Co22      1.0  0.06997  0.35558  0.11935000000000003  0.3452
  Co  Co23      1.0  0.93003  0.35558  0.38065  0.3452
  Co  Co24      1.0  0.06997  0.6444200000000001  0.88065  0.3452
  Co  Co25      1.0  0.43003  0.14442  0.6193500000000001  0.3452
  Co  Co26      1.0  0.5699700000000001  0.85558  0.11935000000000003  0.3452
  Co  Co27      1.0  0.43003  0.85558  0.38065  0.3452
  Co  Co28      1.0  0.5699700000000001  0.14442  0.88065  0.3452
  V   V9        1.0  0.29241  0.0  0.5  0.0660
  V   V10       1.0  0.70759  0.0  0.0  0.0660
  V   V11       1.0  0.7924100000000001  0.5  0.5  0.0660
  V   V12       1.0  0.20759  0.5  0.0  0.0660
  V   V13       1.0  0.0  0.28018999999999994  0.75  0.2800
  V   V14       1.0  0.0  0.7198100000000001  0.25  0.2800
  V   V15       1.0  0.5  0.7801899999999999  0.75  0.2800
  V   V16       1.0  0.5  0.2198100000000001  0.25  0.2800
  V   V17       1.0  0.31161  0.6398900000000001  0.6415200000000001  0.1730
  V   V18       1.0  0.6883900000000001  0.36011  0.14151999999999998  0.1730
  V   V19       1.0  0.31161  0.36011  0.35848  0.1730
  V   V20       1.0  0.6883900000000001  0.6398900000000001  0.8584800000000001  0.1730
  V   V21       1.0  0.8116099999999999  0.13989000000000001  0.6415200000000001  0.1730
  V   V22       1.0  0.18839000000000003  0.8601099999999999  0.14151999999999998  0.1730
  V   V23       1.0  0.8116099999999999  0.8601099999999999  0.35848  0.1730
  V   V24       1.0  0.18839000000000003  0.13989000000000001  0.8584800000000001  0.1730
