data_image0
_chemical_formula_structural       Pt6Fe4N24C24
_chemical_formula_sum              "Pt6 Fe4 N24 C24"
_cell_length_a       16.014
_cell_length_b       13.825
_cell_length_c       7.572
_cell_angle_alpha    90.0
_cell_angle_beta     102.946
_cell_angle_gamma    90.0

_space_group_name_H-M_alt    "P 1"
_space_group_IT_number       1

loop_
  _space_group_symop_operation_xyz
  'x, y, z'

loop_
  _atom_site_type_symbol
  _atom_site_label
  _atom_site_symmetry_multiplicity
  _atom_site_fract_x
  _atom_site_fract_y
  _atom_site_fract_z
  _atom_site_occupancy
  Pt  Pt1       1.0  0.0  0.0  0.0  1.0000
  Pt  Pt2       1.0  0.5  0.5  0.0  1.0000
  Pt  Pt3       1.0  0.19451999999999997  0.5  0.4774899999999999  1.0000
  Pt  Pt4       1.0  0.8054799999999999  0.5  0.52251  1.0000
  Pt  Pt5       1.0  0.69452  0.0  0.4774899999999999  1.0000
  Pt  Pt6       1.0  0.30548000000000003  0.0  0.52251  1.0000
  Fe  Fe1       1.0  0.25  0.25  0.0  1.0000
  Fe  Fe2       1.0  0.7500000000000001  0.25  0.0  1.0000
  Fe  Fe3       1.0  0.7500000000000001  0.7499999999999999  0.0  1.0000
  Fe  Fe4       1.0  0.25  0.7499999999999999  0.0  1.0000
  N   N1        1.0  0.13350000000000004  0.16219999999999998  0.9715999999999999  1.0000
  N   N2        1.0  0.8665  0.16219999999999998  0.028399999999999995  1.0000
  N   N3        1.0  0.6335000000000001  0.6622  0.9715999999999999  1.0000
  N   N4        1.0  0.36649999999999994  0.6622  0.028399999999999995  1.0000
  N   N5        1.0  0.8665  0.8378  0.028399999999999995  1.0000
  N   N6        1.0  0.13350000000000004  0.8378  0.9715999999999999  1.0000
  N   N7        1.0  0.36649999999999994  0.3378  0.028399999999999995  1.0000
  N   N8        1.0  0.6335000000000001  0.3378  0.9715999999999999  1.0000
  N   N9        1.0  0.20809999999999998  0.3449  0.18429999999999994  1.0000
  N   N10       1.0  0.7919  0.3449  0.8157  1.0000
  N   N11       1.0  0.7081000000000001  0.8449  0.18429999999999994  1.0000
  N   N12       1.0  0.2919  0.8449  0.8157  1.0000
  N   N13       1.0  0.7919  0.6551  0.8157  1.0000
  N   N14       1.0  0.20809999999999998  0.6551  0.18429999999999994  1.0000
  N   N15       1.0  0.2919  0.15510000000000002  0.8157  1.0000
  N   N16       1.0  0.7081000000000001  0.15510000000000002  0.18429999999999994  1.0000
  N   N17       1.0  0.3039  0.1577  0.2273  1.0000
  N   N18       1.0  0.6960999999999999  0.1577  0.7726999999999998  1.0000
  N   N19       1.0  0.8039000000000001  0.6577  0.2273  1.0000
  N   N20       1.0  0.19609999999999997  0.6577  0.7726999999999998  1.0000
  N   N21       1.0  0.6960999999999999  0.8422999999999999  0.7726999999999998  1.0000
  N   N22       1.0  0.3039  0.8422999999999999  0.2273  1.0000
  N   N23       1.0  0.19609999999999997  0.3423  0.7726999999999998  1.0000
  N   N24       1.0  0.8039000000000001  0.3423  0.2273  1.0000
  C   C1        1.0  0.08590000000000003  0.1023  0.9809999999999999  1.0000
  C   C2        1.0  0.9141000000000001  0.1023  0.019  1.0000
  C   C3        1.0  0.5859  0.6023  0.9809999999999999  1.0000
  C   C4        1.0  0.41409999999999997  0.6023  0.019  1.0000
  C   C5        1.0  0.9141000000000001  0.8976999999999999  0.019  1.0000
  C   C6        1.0  0.08590000000000003  0.8976999999999999  0.9809999999999999  1.0000
  C   C7        1.0  0.41409999999999997  0.3977  0.019  1.0000
  C   C8        1.0  0.5859  0.3977  0.9809999999999999  1.0000
  C   C9        1.0  0.20010000000000003  0.4002  0.2914999999999999  1.0000
  C   C10       1.0  0.7999  0.4002  0.7085  1.0000
  C   C11       1.0  0.7001000000000001  0.9002  0.2914999999999999  1.0000
  C   C12       1.0  0.29989999999999994  0.9002  0.7085  1.0000
  C   C13       1.0  0.7999  0.5998  0.7085  1.0000
  C   C14       1.0  0.20010000000000003  0.5998  0.2914999999999999  1.0000
  C   C15       1.0  0.29989999999999994  0.0998  0.7085  1.0000
  C   C16       1.0  0.7001000000000001  0.0998  0.2914999999999999  1.0000
  C   C17       1.0  0.3072000000000001  0.1012  0.3373  1.0000
  C   C18       1.0  0.6928  0.1012  0.6627000000000001  1.0000
  C   C19       1.0  0.8072  0.6012  0.3373  1.0000
  C   C20       1.0  0.19279999999999997  0.6012  0.6627000000000001  1.0000
  C   C21       1.0  0.6928  0.8988  0.6627000000000001  1.0000
  C   C22       1.0  0.3072000000000001  0.8988  0.3373  1.0000
  C   C23       1.0  0.19279999999999997  0.3988  0.6627000000000001  1.0000
  C   C24       1.0  0.8072  0.3988  0.3373  1.0000
