data_image0
_chemical_formula_structural       V18Na2O22
_chemical_formula_sum              "V18 Na2 O22"
_cell_length_a       5.699
_cell_length_b       5.698999999999999
_cell_length_c       13.07
_cell_angle_alpha    90.0
_cell_angle_beta     90.0
_cell_angle_gamma    120.00000000000001

_space_group_name_H-M_alt    "P 1"
_space_group_IT_number       1

loop_
  _space_group_symop_operation_xyz
  'x, y, z'

loop_
  _atom_site_type_symbol
  _atom_site_label
  _atom_site_symmetry_multiplicity
  _atom_site_fract_x
  _atom_site_fract_y
  _atom_site_fract_z
  _atom_site_occupancy
  V   V1        1.0  0.5049999999999999  0.013499999999999998  0.0  0.5000
  V   V2        1.0  0.9865  0.4914999999999999  0.0  0.5000
  V   V3        1.0  0.5085000000000002  0.4950000000000001  0.0  0.5000
  V   V4        1.0  0.5049999999999999  0.013499999999999998  0.49999999999999994  0.5000
  V   V5        1.0  0.9865  0.4914999999999999  0.49999999999999994  0.5000
  V   V6        1.0  0.5085000000000002  0.4950000000000001  0.49999999999999994  0.5000
  V   V7        1.0  0.013499999999999984  0.5049999999999999  0.49999999999999994  0.5000
  V   V8        1.0  0.4914999999999999  0.9865  0.49999999999999994  0.5000
  V   V9        1.0  0.49500000000000005  0.5085000000000002  0.49999999999999994  0.5000
  V   V10       1.0  0.013499999999999984  0.5049999999999999  0.0  0.5000
  V   V11       1.0  0.4914999999999999  0.9865  0.0  0.5000
  V   V12       1.0  0.49500000000000005  0.5085000000000002  0.0  0.5000
  V   V13       1.0  0.3333  0.6667  0.24999999999999994  1.0000
  V   V14       1.0  0.6667  0.3333  0.75  1.0000
  V   V15       1.0  0.0  0.0  0.1477  1.0000
  V   V16       1.0  0.0  0.0  0.3523  1.0000
  V   V17       1.0  0.0  0.0  0.6476999999999999  1.0000
  V   V18       1.0  0.0  0.0  0.8523  1.0000
  Na  Na1       1.0  0.6667  0.3333  0.24999999999999994  1.0000
  Na  Na2       1.0  0.3333  0.6667  0.75  1.0000
  O   O1        1.0  0.34079999999999994  0.173  0.0804  1.0000
  O   O2        1.0  0.827  0.16779999999999995  0.0804  1.0000
  O   O3        1.0  0.8321999999999999  0.6592  0.0804  1.0000
  O   O4        1.0  0.34079999999999994  0.173  0.4196  1.0000
  O   O5        1.0  0.827  0.16779999999999995  0.4196  1.0000
  O   O6        1.0  0.8321999999999999  0.6592  0.4196  1.0000
  O   O7        1.0  0.17299999999999996  0.3407999999999999  0.5803999999999999  1.0000
  O   O8        1.0  0.1677999999999999  0.8269999999999998  0.5803999999999999  1.0000
  O   O9        1.0  0.6592  0.8322  0.5803999999999999  1.0000
  O   O10       1.0  0.17299999999999996  0.3407999999999999  0.9195999999999999  1.0000
  O   O11       1.0  0.1677999999999999  0.8269999999999998  0.9195999999999999  1.0000
  O   O12       1.0  0.6592  0.8322  0.9195999999999999  1.0000
  O   O13       1.0  0.147  0.3051  0.24999999999999994  1.0000
  O   O14       1.0  0.6949000000000001  0.8419  0.24999999999999994  1.0000
  O   O15       1.0  0.15810000000000002  0.853  0.24999999999999994  1.0000
  O   O16       1.0  0.3050999999999999  0.14699999999999996  0.75  1.0000
  O   O17       1.0  0.8418999999999999  0.6949000000000001  0.75  1.0000
  O   O18       1.0  0.853  0.1581  0.75  1.0000
  O   O19       1.0  0.3333  0.6667  0.09019999999999997  1.0000
  O   O20       1.0  0.3333  0.6667  0.4098  1.0000
  O   O21       1.0  0.6667  0.3333  0.5901999999999998  1.0000
  O   O22       1.0  0.6667  0.3333  0.9098  1.0000
