data_image0
_chemical_formula_structural       Eu2Ru8P24
_chemical_formula_sum              "Eu2 Ru8 P24"
_cell_length_a       8.04163
_cell_length_b       8.04163
_cell_length_c       8.04163
_cell_angle_alpha    90.0
_cell_angle_beta     90.0
_cell_angle_gamma    90.0

_space_group_name_H-M_alt    "P 1"
_space_group_IT_number       1

loop_
  _space_group_symop_operation_xyz
  'x, y, z'

loop_
  _atom_site_type_symbol
  _atom_site_label
  _atom_site_symmetry_multiplicity
  _atom_site_fract_x
  _atom_site_fract_y
  _atom_site_fract_z
  _atom_site_occupancy
  Eu  Eu1       1.0  0.0  0.0  0.0  0.9700
  Eu  Eu2       1.0  0.5  0.5  0.5  0.9700
  Ru  Ru1       1.0  0.25  0.25  0.25  1.0000
  Ru  Ru2       1.0  0.75  0.75  0.25  1.0000
  Ru  Ru3       1.0  0.75  0.25  0.75  1.0000
  Ru  Ru4       1.0  0.25  0.75  0.75  1.0000
  Ru  Ru5       1.0  0.75  0.75  0.75  1.0000
  Ru  Ru6       1.0  0.25  0.25  0.75  1.0000
  Ru  Ru7       1.0  0.25  0.75  0.25  1.0000
  Ru  Ru8       1.0  0.75  0.25  0.25  1.0000
  P   P1        1.0  0.0  0.359329  0.143386  1.0000
  P   P2        1.0  0.0  0.640671  0.143386  1.0000
  P   P3        1.0  0.0  0.359329  0.856614  1.0000
  P   P4        1.0  0.0  0.640671  0.856614  1.0000
  P   P5        1.0  0.143386  0.0  0.359329  1.0000
  P   P6        1.0  0.143386  0.0  0.640671  1.0000
  P   P7        1.0  0.856614  0.0  0.359329  1.0000
  P   P8        1.0  0.856614  0.0  0.640671  1.0000
  P   P9        1.0  0.359329  0.143386  0.0  1.0000
  P   P10       1.0  0.640671  0.143386  0.0  1.0000
  P   P11       1.0  0.359329  0.856614  0.0  1.0000
  P   P12       1.0  0.640671  0.856614  0.0  1.0000
  P   P13       1.0  0.5  0.859329  0.643386  1.0000
  P   P14       1.0  0.5  0.140671  0.643386  1.0000
  P   P15       1.0  0.5  0.859329  0.356614  1.0000
  P   P16       1.0  0.5  0.140671  0.356614  1.0000
  P   P17       1.0  0.643386  0.5  0.859329  1.0000
  P   P18       1.0  0.643386  0.5  0.140671  1.0000
  P   P19       1.0  0.356614  0.5  0.859329  1.0000
  P   P20       1.0  0.356614  0.5  0.140671  1.0000
  P   P21       1.0  0.859329  0.643386  0.5  1.0000
  P   P22       1.0  0.140671  0.643386  0.5  1.0000
  P   P23       1.0  0.859329  0.356614  0.5  1.0000
  P   P24       1.0  0.140671  0.356614  0.5  1.0000
