data_image0
_chemical_formula_structural       Ag2Cd4Ga2S8
_chemical_formula_sum              "Ag2 Cd4 Ga2 S8"
_cell_length_a       8.1395
_cell_length_b       6.9394
_cell_length_c       6.6014
_cell_angle_alpha    90.0
_cell_angle_beta     90.0
_cell_angle_gamma    90.0

_space_group_name_H-M_alt    "P 1"
_space_group_IT_number       1

loop_
  _space_group_symop_operation_xyz
  'x, y, z'

loop_
  _atom_site_type_symbol
  _atom_site_label
  _atom_site_symmetry_multiplicity
  _atom_site_fract_x
  _atom_site_fract_y
  _atom_site_fract_z
  _atom_site_occupancy
  Ag  Ag1       1.0  0.0  0.33896  0.50805  1.0000
  Ag  Ag2       1.0  0.5  0.6610400000000001  0.00804999999999989  1.0000
  Cd  Cd1       1.0  0.2522600000000001  0.82638  0.51089  1.0000
  Cd  Cd2       1.0  0.24773999999999996  0.17362  0.010889999999999846  1.0000
  Cd  Cd3       1.0  0.74774  0.82638  0.51089  1.0000
  Cd  Cd4       1.0  0.7522600000000002  0.17362  0.010889999999999846  1.0000
  Ga  Ga1       1.0  0.5  0.32571  0.50781  1.0000
  Ga  Ga2       1.0  0.0  0.6742900000000001  0.0078100000000000955  1.0000
  S   S1        1.0  0.26431  0.1725  0.3949000000000001  1.0000
  S   S2        1.0  0.23569000000000004  0.8275  0.8949000000000001  1.0000
  S   S3        1.0  0.73569  0.1725  0.3949000000000001  1.0000
  S   S4        1.0  0.7643100000000002  0.8275  0.8949000000000001  1.0000
  S   S5        1.0  0.0  0.6778  0.3619000000000001  1.0000
  S   S6        1.0  0.5  0.32220000000000004  0.8619000000000002  1.0000
  S   S7        1.0  0.5  0.6394000000000002  0.3949000000000001  1.0000
  S   S8        1.0  0.0  0.3606  0.8949000000000001  1.0000
