data_image0
_chemical_formula_structural       Ag8K8C8O24
_chemical_formula_sum              "Ag8 K8 C8 O24"
_cell_length_a       20.389
_cell_length_b       5.775
_cell_length_c       5.944
_cell_angle_alpha    90.0
_cell_angle_beta     90.0
_cell_angle_gamma    90.0

_space_group_name_H-M_alt    "P 1"
_space_group_IT_number       1

loop_
  _space_group_symop_operation_xyz
  'x, y, z'

loop_
  _atom_site_type_symbol
  _atom_site_label
  _atom_site_symmetry_multiplicity
  _atom_site_fract_x
  _atom_site_fract_y
  _atom_site_fract_z
  _atom_site_occupancy
  Ag  Ag1       1.0  0.0  0.25  0.13427  1.0000
  Ag  Ag2       1.0  0.49999999999999994  0.7500000000000001  0.6342699999999999  1.0000
  Ag  Ag3       1.0  0.0  0.7500000000000001  0.36573  1.0000
  Ag  Ag4       1.0  0.49999999999999994  0.25  0.86573  1.0000
  Ag  Ag5       1.0  0.0  0.7500000000000001  0.86573  1.0000
  Ag  Ag6       1.0  0.49999999999999994  0.25  0.36573  1.0000
  Ag  Ag7       1.0  0.0  0.25  0.6342699999999999  1.0000
  Ag  Ag8       1.0  0.49999999999999994  0.7500000000000001  0.13427  1.0000
  K   K1        1.0  0.81968  0.0  0.24999999999999994  1.0000
  K   K2        1.0  0.68032  0.0  0.75  1.0000
  K   K3        1.0  0.18032  0.5  0.24999999999999997  1.0000
  K   K4        1.0  0.31967999999999996  0.5  0.75  1.0000
  K   K5        1.0  0.18032  0.0  0.75  1.0000
  K   K6        1.0  0.31967999999999996  0.0  0.24999999999999997  1.0000
  K   K7        1.0  0.81968  0.5  0.75  1.0000
  K   K8        1.0  0.68032  0.5  0.24999999999999994  1.0000
  C   C1        1.0  0.1266  0.0  0.24999999999999994  1.0000
  C   C2        1.0  0.3734  0.0  0.75  1.0000
  C   C3        1.0  0.8733999999999998  0.5  0.24999999999999997  1.0000
  C   C4        1.0  0.6266  0.5  0.75  1.0000
  C   C5        1.0  0.8733999999999998  0.0  0.75  1.0000
  C   C6        1.0  0.6266  0.0  0.24999999999999997  1.0000
  C   C7        1.0  0.1266  0.5  0.75  1.0000
  C   C8        1.0  0.3734  0.5  0.24999999999999994  1.0000
  O   O1        1.0  0.18899999999999997  0.0  0.24999999999999994  1.0000
  O   O2        1.0  0.31100000000000005  0.0  0.75  1.0000
  O   O3        1.0  0.811  0.5  0.24999999999999997  1.0000
  O   O4        1.0  0.689  0.5  0.75  1.0000
  O   O5        1.0  0.811  0.0  0.75  1.0000
  O   O6        1.0  0.689  0.0  0.24999999999999997  1.0000
  O   O7        1.0  0.18899999999999997  0.5  0.75  1.0000
  O   O8        1.0  0.31100000000000005  0.5  0.24999999999999994  1.0000
  O   O9        1.0  0.09672999999999998  0.1349  0.11239999999999999  1.0000
  O   O10       1.0  0.40327  0.8651000000000001  0.6123999999999999  1.0000
  O   O11       1.0  0.90327  0.6349  0.38759999999999994  1.0000
  O   O12       1.0  0.5967299999999999  0.3651  0.8876  1.0000
  O   O13       1.0  0.5967299999999999  0.6349  0.6123999999999999  1.0000
  O   O14       1.0  0.90327  0.3651  0.11239999999999999  1.0000
  O   O15       1.0  0.40327  0.1349  0.8876  1.0000
  O   O16       1.0  0.09672999999999998  0.8651000000000001  0.38759999999999994  1.0000
  O   O17       1.0  0.90327  0.8651000000000001  0.8876  1.0000
  O   O18       1.0  0.5967299999999999  0.1349  0.38759999999999994  1.0000
  O   O19       1.0  0.09672999999999998  0.3651  0.6123999999999999  1.0000
  O   O20       1.0  0.40327  0.6349  0.11239999999999999  1.0000
  O   O21       1.0  0.40327  0.3651  0.38759999999999994  1.0000
  O   O22       1.0  0.09672999999999998  0.6349  0.8876  1.0000
  O   O23       1.0  0.5967299999999999  0.8651000000000001  0.11239999999999999  1.0000
  O   O24       1.0  0.90327  0.1349  0.6123999999999999  1.0000
