data_image0
_chemical_formula_structural       Cr2B8
_chemical_formula_sum              "Cr2 B8"
_cell_length_a       4.7482
_cell_length_b       5.4856
_cell_length_c       2.8717
_cell_angle_alpha    90.0
_cell_angle_beta     90.0
_cell_angle_gamma    90.0

_space_group_name_H-M_alt    "P 1"
_space_group_IT_number       1

loop_
  _space_group_symop_operation_xyz
  'x, y, z'

loop_
  _atom_site_type_symbol
  _atom_site_label
  _atom_site_symmetry_multiplicity
  _atom_site_fract_x
  _atom_site_fract_y
  _atom_site_fract_z
  _atom_site_occupancy
  Cr  Cr1       1.0  0.0  0.0  0.0  1.0000
  Cr  Cr2       1.0  0.5  0.49999999999999994  0.5  1.0000
  B   B1        1.0  0.1933  0.34409999999999996  0.0  1.0000
  B   B2        1.0  0.8067  0.6558999999999999  0.0  1.0000
  B   B3        1.0  0.1933  0.6558999999999999  0.0  1.0000
  B   B4        1.0  0.8067  0.34409999999999996  0.0  1.0000
  B   B5        1.0  0.6933  0.8440999999999999  0.5  1.0000
  B   B6        1.0  0.3067  0.15590000000000004  0.5  1.0000
  B   B7        1.0  0.6933  0.15590000000000004  0.5  1.0000
  B   B8        1.0  0.3067  0.8440999999999999  0.5  1.0000
