data_image0
_chemical_formula_structural       Ni8Si4P16O56
_chemical_formula_sum              "Ni8 Si4 P16 O56"
_cell_length_a       16.8615
_cell_length_b       4.8948
_cell_length_c       12.1925
_cell_angle_alpha    90.0
_cell_angle_beta     103.693
_cell_angle_gamma    90.0

_space_group_name_H-M_alt    "P 1"
_space_group_IT_number       1

loop_
  _space_group_symop_operation_xyz
  'x, y, z'

loop_
  _atom_site_type_symbol
  _atom_site_label
  _atom_site_symmetry_multiplicity
  _atom_site_fract_x
  _atom_site_fract_y
  _atom_site_fract_z
  _atom_site_occupancy
  Ni  Ni1       1.0  0.247526  0.35079  0.12916  1.0000
  Ni  Ni2       1.0  0.7524739999999999  0.35079  0.37084  1.0000
  Ni  Ni3       1.0  0.7524739999999999  0.6492100000000002  0.87084  1.0000
  Ni  Ni4       1.0  0.247526  0.6492100000000002  0.6291599999999998  1.0000
  Ni  Ni5       1.0  0.747526  0.85079  0.12916  1.0000
  Ni  Ni6       1.0  0.252474  0.85079  0.37084  1.0000
  Ni  Ni7       1.0  0.252474  0.14921  0.87084  1.0000
  Ni  Ni8       1.0  0.747526  0.14921  0.6291599999999998  1.0000
  Si  Si1       1.0  0.5  0.1611100000000001  0.24999999999999994  1.0000
  Si  Si2       1.0  0.5  0.83889  0.7499999999999999  1.0000
  Si  Si3       1.0  0.0  0.6611100000000001  0.24999999999999994  1.0000
  Si  Si4       1.0  0.0  0.33888999999999997  0.7499999999999999  1.0000
  P   P1        1.0  0.12621  0.8691  0.13612  1.0000
  P   P2        1.0  0.8737900000000001  0.8691  0.36388  1.0000
  P   P3        1.0  0.8737900000000001  0.1309  0.8638799999999999  1.0000
  P   P4        1.0  0.12620999999999996  0.1309  0.6361199999999999  1.0000
  P   P5        1.0  0.6262099999999999  0.3691  0.13612  1.0000
  P   P6        1.0  0.37379000000000007  0.3691  0.36388  1.0000
  P   P7        1.0  0.37379  0.6309  0.8638799999999999  1.0000
  P   P8        1.0  0.6262099999999998  0.6309  0.6361199999999999  1.0000
  P   P9        1.0  0.36378  0.83352  0.08433  1.0000
  P   P10       1.0  0.6362199999999999  0.83352  0.41566999999999993  1.0000
  P   P11       1.0  0.6362200000000001  0.16647999999999996  0.91567  1.0000
  P   P12       1.0  0.36378000000000005  0.16647999999999996  0.58433  1.0000
  P   P13       1.0  0.8637799999999999  0.33352000000000004  0.08433  1.0000
  P   P14       1.0  0.13622  0.33352000000000004  0.41566999999999993  1.0000
  P   P15       1.0  0.13622  0.66648  0.91567  1.0000
  P   P16       1.0  0.8637799999999999  0.66648  0.58433  1.0000
  O   O1        1.0  0.14379  0.1598  0.12001999999999999  1.0000
  O   O2        1.0  0.85621  0.1598  0.37998  1.0000
  O   O3        1.0  0.85621  0.8402000000000001  0.87998  1.0000
  O   O4        1.0  0.14378999999999997  0.8402000000000001  0.6200199999999999  1.0000
  O   O5        1.0  0.64379  0.6597999999999999  0.12001999999999999  1.0000
  O   O6        1.0  0.35621  0.6597999999999999  0.37998  1.0000
  O   O7        1.0  0.35621  0.3402  0.87998  1.0000
  O   O8        1.0  0.64379  0.3402  0.6200199999999999  1.0000
  O   O9        1.0  0.04526  0.8525  0.17732999999999996  1.0000
  O   O10       1.0  0.95474  0.8525  0.32267  1.0000
  O   O11       1.0  0.95474  0.1475  0.8226699999999999  1.0000
  O   O12       1.0  0.04526  0.1475  0.67733  1.0000
  O   O13       1.0  0.54526  0.35250000000000004  0.17732999999999996  1.0000
  O   O14       1.0  0.45474  0.35250000000000004  0.32267  1.0000
  O   O15       1.0  0.45474  0.6475  0.8226699999999999  1.0000
  O   O16       1.0  0.54526  0.6475  0.67733  1.0000
  O   O17       1.0  0.40483999999999987  0.7811  0.9817499999999999  1.0000
  O   O18       1.0  0.59516  0.7811  0.5182499999999999  1.0000
  O   O19       1.0  0.59516  0.21889999999999998  0.01825  1.0000
  O   O20       1.0  0.40483999999999987  0.21889999999999998  0.48175  1.0000
  O   O21       1.0  0.9048399999999998  0.2810999999999999  0.9817499999999999  1.0000
  O   O22       1.0  0.09516000000000005  0.2810999999999999  0.5182499999999999  1.0000
  O   O23       1.0  0.09516000000000008  0.7189  0.01825  1.0000
  O   O24       1.0  0.9048399999999999  0.7189  0.48175  1.0000
  O   O25       1.0  0.19424  0.6981999999999999  0.20675  1.0000
  O   O26       1.0  0.8057599999999999  0.6981999999999999  0.29324999999999996  1.0000
  O   O27       1.0  0.8057599999999999  0.3018  0.7932499999999999  1.0000
  O   O28       1.0  0.19424  0.3018  0.70675  1.0000
  O   O29       1.0  0.69424  0.1982  0.20675  1.0000
  O   O30       1.0  0.30576000000000003  0.1982  0.29324999999999996  1.0000
  O   O31       1.0  0.30576000000000003  0.8018000000000001  0.7932499999999999  1.0000
  O   O32       1.0  0.6942399999999999  0.8018000000000001  0.70675  1.0000
  O   O33       1.0  0.29494  0.03160000000000007  0.04485999999999999  1.0000
  O   O34       1.0  0.70506  0.03160000000000007  0.45514  1.0000
  O   O35       1.0  0.70506  0.9683999999999999  0.95514  1.0000
  O   O36       1.0  0.29494  0.9683999999999999  0.5448599999999999  1.0000
  O   O37       1.0  0.7949399999999999  0.5316000000000001  0.04485999999999999  1.0000
  O   O38       1.0  0.20506000000000002  0.5316000000000001  0.45514  1.0000
  O   O39       1.0  0.20506  0.4683999999999999  0.95514  1.0000
  O   O40       1.0  0.7949399999999999  0.4683999999999999  0.5448599999999999  1.0000
  O   O41       1.0  0.34568999999999994  0.5703  0.13236999999999996  1.0000
  O   O42       1.0  0.65431  0.5703  0.36762999999999996  1.0000
  O   O43       1.0  0.65431  0.42969999999999997  0.86763  1.0000
  O   O44       1.0  0.3456899999999999  0.42969999999999997  0.63237  1.0000
  O   O45       1.0  0.8456899999999999  0.07030000000000003  0.13236999999999996  1.0000
  O   O46       1.0  0.15431000000000003  0.07030000000000003  0.36762999999999996  1.0000
  O   O47       1.0  0.15431000000000003  0.9297000000000001  0.86763  1.0000
  O   O48       1.0  0.8456899999999999  0.9297000000000001  0.63237  1.0000
  O   O49       1.0  0.43615  0.9697000000000001  0.16829  1.0000
  O   O50       1.0  0.56385  0.9697000000000001  0.33171  1.0000
  O   O51       1.0  0.56385  0.030299999999999886  0.8317099999999998  1.0000
  O   O52       1.0  0.43615  0.030299999999999886  0.6682899999999999  1.0000
  O   O53       1.0  0.9361499999999999  0.46970000000000006  0.16829  1.0000
  O   O54       1.0  0.06385000000000002  0.46970000000000006  0.33171  1.0000
  O   O55       1.0  0.06384999999999999  0.5302999999999999  0.8317099999999998  1.0000
  O   O56       1.0  0.9361499999999998  0.5302999999999999  0.6682899999999999  1.0000
