data_image0
_chemical_formula_structural       Cu4Cl16Al4
_chemical_formula_sum              "Cu4 Cl16 Al4"
_cell_length_a       12.8388
_cell_length_b       7.6455
_cell_length_c       6.1264
_cell_angle_alpha    90.0
_cell_angle_beta     90.0
_cell_angle_gamma    90.0

_space_group_name_H-M_alt    "P 1"
_space_group_IT_number       1

loop_
  _space_group_symop_operation_xyz
  'x, y, z'

loop_
  _atom_site_type_symbol
  _atom_site_label
  _atom_site_symmetry_multiplicity
  _atom_site_fract_x
  _atom_site_fract_y
  _atom_site_fract_z
  _atom_site_occupancy
  Cu  Cu1       1.0  0.33761  0.99387  0.05994000000000001  1.0000
  Cu  Cu2       1.0  0.16238999999999998  0.49387000000000003  0.55994  1.0000
  Cu  Cu3       1.0  0.83761  0.50613  0.05994000000000001  1.0000
  Cu  Cu4       1.0  0.66239  0.006129999999999969  0.55994  1.0000
  Cl  Cl1       1.0  0.40884  0.25083999999999995  0.9066000000000001  1.0000
  Cl  Cl2       1.0  0.09116000000000002  0.7508400000000001  0.4066  1.0000
  Cl  Cl3       1.0  0.90884  0.24916000000000005  0.9066000000000001  1.0000
  Cl  Cl4       1.0  0.59116  0.74916  0.4066  1.0000
  Cl  Cl5       1.0  0.42943  0.74431  0.9408  1.0000
  Cl  Cl6       1.0  0.07057000000000002  0.24431000000000003  0.44079999999999997  1.0000
  Cl  Cl7       1.0  0.92943  0.7556900000000001  0.9408  1.0000
  Cl  Cl8       1.0  0.57057  0.25569  0.44079999999999997  1.0000
  Cl  Cl9       1.0  0.3372200000000001  0.014199999999999992  0.44365  1.0000
  Cl  Cl10      1.0  0.16277999999999992  0.5142  0.94365  1.0000
  Cl  Cl11      1.0  0.8372200000000001  0.4858  0.44365  1.0000
  Cl  Cl12      1.0  0.6627799999999999  0.9858  0.94365  1.0000
  Cl  Cl13      1.0  0.16346  0.97629  0.9339000000000001  1.0000
  Cl  Cl14      1.0  0.33654  0.4762900000000001  0.43390000000000006  1.0000
  Cl  Cl15      1.0  0.66346  0.52371  0.9339000000000001  1.0000
  Cl  Cl16      1.0  0.8365400000000001  0.02371000000000001  0.43390000000000006  1.0000
  Al  Al1       1.0  0.41292  0.24748000000000017  0.5573  1.0000
  Al  Al2       1.0  0.08707999999999999  0.7474800000000001  0.057300000000000025  1.0000
  Al  Al3       1.0  0.91292  0.25251999999999986  0.5573  1.0000
  Al  Al4       1.0  0.58708  0.75252  0.057300000000000025  1.0000
