data_image0
_chemical_formula_structural       Tc4Br12
_chemical_formula_sum              "Tc4 Br12"
_cell_length_a       11.0618
_cell_length_b       5.9755
_cell_length_c       6.3873
_cell_angle_alpha    90.0
_cell_angle_beta     90.0
_cell_angle_gamma    90.0

_space_group_name_H-M_alt    "P 1"
_space_group_IT_number       1

loop_
  _space_group_symop_operation_xyz
  'x, y, z'

loop_
  _atom_site_type_symbol
  _atom_site_label
  _atom_site_symmetry_multiplicity
  _atom_site_fract_x
  _atom_site_fract_y
  _atom_site_fract_z
  _atom_site_occupancy
  Tc  Tc1       1.0  0.25  0.006049999999999999  0.24832999999999994  1.0000
  Tc  Tc2       1.0  0.25  0.49395  0.24832999999999994  1.0000
  Tc  Tc3       1.0  0.75  0.50605  0.75167  1.0000
  Tc  Tc4       1.0  0.75  0.9939499999999999  0.75167  1.0000
  Br  Br1       1.0  0.25  0.25  0.9310999999999999  1.0000
  Br  Br2       1.0  0.75  0.75  0.0689  1.0000
  Br  Br3       1.0  0.25  0.75  0.5609  1.0000
  Br  Br4       1.0  0.75  0.25  0.4391  1.0000
  Br  Br5       1.0  0.40902999999999995  0.25  0.40749  1.0000
  Br  Br6       1.0  0.09097000000000005  0.25  0.40749  1.0000
  Br  Br7       1.0  0.59097  0.75  0.5925099999999999  1.0000
  Br  Br8       1.0  0.90903  0.75  0.5925099999999999  1.0000
  Br  Br9       1.0  0.40619  0.75  0.09188  1.0000
  Br  Br10      1.0  0.09381  0.75  0.09188  1.0000
  Br  Br11      1.0  0.59381  0.25  0.9081199999999999  1.0000
  Br  Br12      1.0  0.9061899999999999  0.25  0.9081199999999999  1.0000
