data_image0
_chemical_formula_structural       Na4Mo4O16
_chemical_formula_sum              "Na4 Mo4 O16"
_cell_length_a       5.1816
_cell_length_b       5.1816
_cell_length_c       11.288
_cell_angle_alpha    90.0
_cell_angle_beta     90.0
_cell_angle_gamma    90.0

_space_group_name_H-M_alt    "P 1"
_space_group_IT_number       1

loop_
  _space_group_symop_operation_xyz
  'x, y, z'

loop_
  _atom_site_type_symbol
  _atom_site_label
  _atom_site_symmetry_multiplicity
  _atom_site_fract_x
  _atom_site_fract_y
  _atom_site_fract_z
  _atom_site_occupancy
  Na  Na1       1.0  0.0  0.25  0.125  0.5000
  Na  Na2       1.0  0.5  0.25  0.37500000000000006  0.5000
  Na  Na3       1.0  0.5  0.7500000000000001  0.6249999999999999  0.5000
  Na  Na4       1.0  0.0  0.7500000000000001  0.875  0.5000
  Mo  Mo1       1.0  0.5  0.7500000000000002  0.125  1.0000
  Mo  Mo2       1.0  0.9999999999999999  0.7500000000000001  0.37500000000000006  1.0000
  Mo  Mo3       1.0  0.0  0.25  0.6249999999999999  1.0000
  Mo  Mo4       1.0  0.49999999999999994  0.25  0.875  1.0000
  O   O1        1.0  0.25680000000000003  0.5968  0.0397  1.0000
  O   O2        1.0  0.1532  0.5068  0.2897  1.0000
  O   O3        1.0  0.7432  0.9032  0.0397  1.0000
  O   O4        1.0  0.8468  0.9932000000000001  0.2897  1.0000
  O   O5        1.0  0.7568000000000001  0.09680000000000001  0.5397  1.0000
  O   O6        1.0  0.6532  0.00680000000000014  0.7897  1.0000
  O   O7        1.0  0.24319999999999997  0.40320000000000006  0.5397  1.0000
  O   O8        1.0  0.34680000000000005  0.4932  0.7897  1.0000
  O   O9        1.0  0.7432  0.40320000000000006  0.9602999999999999  1.0000
  O   O10       1.0  0.8468  0.4932  0.7103  1.0000
  O   O11       1.0  0.25680000000000003  0.09680000000000001  0.9602999999999999  1.0000
  O   O12       1.0  0.1532  0.00680000000000014  0.7103  1.0000
  O   O13       1.0  0.24319999999999997  0.9032  0.4603  1.0000
  O   O14       1.0  0.34680000000000005  0.9932000000000001  0.2103  1.0000
  O   O15       1.0  0.7568000000000001  0.5968  0.4603  1.0000
  O   O16       1.0  0.6532  0.5068  0.2103  1.0000
  Er  Er1       1.0  0.0  0.25  0.125  0.5000
  Er  Er2       1.0  0.5  0.25  0.37500000000000006  0.5000
  Er  Er3       1.0  0.5  0.7500000000000001  0.6249999999999999  0.5000
  Er  Er4       1.0  0.0  0.7500000000000001  0.875  0.5000
