data_image0
_chemical_formula_structural       Cs16Cd8Si40O96
_chemical_formula_sum              "Cs16 Cd8 Si40 O96"
_cell_length_a       13.6714
_cell_length_b       13.824
_cell_length_c       13.8939
_cell_angle_alpha    90.0
_cell_angle_beta     90.0
_cell_angle_gamma    90.0

_space_group_name_H-M_alt    "P 1"
_space_group_IT_number       1

loop_
  _space_group_symop_operation_xyz
  'x, y, z'

loop_
  _atom_site_type_symbol
  _atom_site_label
  _atom_site_symmetry_multiplicity
  _atom_site_fract_x
  _atom_site_fract_y
  _atom_site_fract_z
  _atom_site_occupancy
  Cs  Cs1       1.0  0.1261  0.1302  0.1521  1.0000
  Cs  Cs2       1.0  0.3739  0.8698000000000001  0.6520999999999999  1.0000
  Cs  Cs3       1.0  0.8738999999999999  0.6302  0.34789999999999993  1.0000
  Cs  Cs4       1.0  0.6261  0.3698  0.8478999999999999  1.0000
  Cs  Cs5       1.0  0.8738999999999999  0.8698000000000001  0.8478999999999999  1.0000
  Cs  Cs6       1.0  0.6261  0.1302  0.34789999999999993  1.0000
  Cs  Cs7       1.0  0.1261  0.3698  0.6520999999999999  1.0000
  Cs  Cs8       1.0  0.3739  0.6302  0.1521  1.0000
  Cs  Cs9       1.0  0.3742999999999999  0.3866  0.3841  1.0000
  Cs  Cs10      1.0  0.12570000000000003  0.6134  0.8840999999999999  1.0000
  Cs  Cs11      1.0  0.6256999999999999  0.8866  0.11589999999999999  1.0000
  Cs  Cs12      1.0  0.8742999999999999  0.1134  0.6158999999999999  1.0000
  Cs  Cs13      1.0  0.6256999999999999  0.6134  0.6158999999999999  1.0000
  Cs  Cs14      1.0  0.8742999999999999  0.3866  0.11589999999999999  1.0000
  Cs  Cs15      1.0  0.3742999999999999  0.1134  0.8840999999999999  1.0000
  Cs  Cs16      1.0  0.12570000000000003  0.8866  0.3841  1.0000
  Cd  Cd1       1.0  0.379  0.8372  0.9378999999999997  1.0000
  Cd  Cd2       1.0  0.121  0.16279999999999994  0.43789999999999996  1.0000
  Cd  Cd3       1.0  0.621  0.33720000000000017  0.5621000000000002  1.0000
  Cd  Cd4       1.0  0.8789999999999999  0.6628  0.06210000000000015  1.0000
  Cd  Cd5       1.0  0.621  0.16279999999999994  0.06210000000000015  1.0000
  Cd  Cd6       1.0  0.8789999999999999  0.8372  0.5621000000000002  1.0000
  Cd  Cd7       1.0  0.379  0.6628  0.43789999999999996  1.0000
  Cd  Cd8       1.0  0.121  0.33720000000000017  0.9378999999999997  1.0000
  Si  Si1       1.0  0.12399999999999997  0.6674  0.6002  1.0000
  Si  Si2       1.0  0.37599999999999995  0.33260000000000006  0.10020000000000005  1.0000
  Si  Si3       1.0  0.876  0.1674  0.8998  1.0000
  Si  Si4       1.0  0.624  0.8326  0.3998  1.0000
  Si  Si5       1.0  0.876  0.33260000000000006  0.3998  1.0000
  Si  Si6       1.0  0.624  0.6674  0.8998  1.0000
  Si  Si7       1.0  0.12399999999999997  0.8326  0.10020000000000005  1.0000
  Si  Si8       1.0  0.37599999999999995  0.1674  0.6002  1.0000
  Si  Si9       1.0  0.5867999999999999  0.1111  0.6342  1.0000
  Si  Si10      1.0  0.9132  0.8889  0.13419999999999985  1.0000
  Si  Si11      1.0  0.4132000000000001  0.6111  0.8658  1.0000
  Si  Si12      1.0  0.08679999999999975  0.3889  0.3658  1.0000
  Si  Si13      1.0  0.4132000000000001  0.8889  0.3658  1.0000
  Si  Si14      1.0  0.08679999999999975  0.1111  0.8658  1.0000
  Si  Si15      1.0  0.5867999999999999  0.3889  0.13419999999999985  1.0000
  Si  Si16      1.0  0.9132  0.6111  0.6342  1.0000
  Si  Si17      1.0  0.6424  0.6021  0.10639999999999997  1.0000
  Si  Si18      1.0  0.8576  0.39790000000000003  0.6063999999999998  1.0000
  Si  Si19      1.0  0.35760000000000003  0.10210000000000008  0.39359999999999995  1.0000
  Si  Si20      1.0  0.14239999999999986  0.8979  0.8936  1.0000
  Si  Si21      1.0  0.35760000000000003  0.39790000000000003  0.8936  1.0000
  Si  Si22      1.0  0.14239999999999986  0.6021  0.39359999999999995  1.0000
  Si  Si23      1.0  0.6424  0.8979  0.6063999999999998  1.0000
  Si  Si24      1.0  0.8576  0.10210000000000008  0.10639999999999997  1.0000
  Si  Si25      1.0  0.8939999999999998  0.37010000000000004  0.8127999999999997  1.0000
  Si  Si26      1.0  0.606  0.6298999999999999  0.31279999999999974  1.0000
  Si  Si27      1.0  0.1060000000000001  0.8701000000000001  0.6872  1.0000
  Si  Si28      1.0  0.39399999999999985  0.12989999999999996  0.18720000000000012  1.0000
  Si  Si29      1.0  0.1060000000000001  0.6298999999999999  0.18720000000000012  1.0000
  Si  Si30      1.0  0.39399999999999985  0.37010000000000004  0.6872  1.0000
  Si  Si31      1.0  0.8939999999999998  0.12989999999999996  0.31279999999999974  1.0000
  Si  Si32      1.0  0.606  0.8701000000000001  0.8127999999999997  1.0000
  Si  Si33      1.0  0.8273999999999998  0.9177  0.3429999999999999  1.0000
  Si  Si34      1.0  0.6726  0.08230000000000004  0.8429999999999999  1.0000
  Si  Si35      1.0  0.1726000000000001  0.41769999999999996  0.157  1.0000
  Si  Si36      1.0  0.3273999999999999  0.5823  0.6569999999999999  1.0000
  Si  Si37      1.0  0.1726000000000001  0.08230000000000004  0.6569999999999999  1.0000
  Si  Si38      1.0  0.3273999999999999  0.9177  0.157  1.0000
  Si  Si39      1.0  0.8273999999999998  0.5823  0.8429999999999999  1.0000
  Si  Si40      1.0  0.6726  0.41769999999999996  0.3429999999999999  1.0000
  O   O1        1.0  0.46999999999999986  0.37000000000000005  0.152  1.0000
  O   O2        1.0  0.03000000000000008  0.6299999999999999  0.6519999999999999  1.0000
  O   O3        1.0  0.53  0.8700000000000002  0.3479999999999999  1.0000
  O   O4        1.0  0.9699999999999999  0.12999999999999995  0.8479999999999999  1.0000
  O   O5        1.0  0.53  0.6299999999999999  0.8479999999999999  1.0000
  O   O6        1.0  0.9699999999999999  0.37000000000000005  0.3479999999999999  1.0000
  O   O7        1.0  0.46999999999999986  0.12999999999999995  0.6519999999999999  1.0000
  O   O8        1.0  0.03000000000000008  0.8700000000000002  0.152  1.0000
  O   O9        1.0  0.102  0.498  0.40599999999999997  1.0000
  O   O10       1.0  0.398  0.502  0.9059999999999999  1.0000
  O   O11       1.0  0.8979999999999999  0.9980000000000001  0.09400000000000003  1.0000
  O   O12       1.0  0.6019999999999999  0.0020000000000000018  0.5940000000000001  1.0000
  O   O13       1.0  0.8979999999999999  0.502  0.5940000000000001  1.0000
  O   O14       1.0  0.6019999999999999  0.498  0.09400000000000003  1.0000
  O   O15       1.0  0.102  0.0020000000000000018  0.9059999999999999  1.0000
  O   O16       1.0  0.398  0.9980000000000001  0.40599999999999997  1.0000
  O   O17       1.0  0.375  0.168  0.4829999999999999  1.0000
  O   O18       1.0  0.12499999999999999  0.832  0.9829999999999999  1.0000
  O   O19       1.0  0.6249999999999999  0.668  0.01700000000000007  1.0000
  O   O20       1.0  0.8749999999999999  0.33199999999999996  0.517  1.0000
  O   O21       1.0  0.6249999999999999  0.832  0.517  1.0000
  O   O22       1.0  0.8749999999999999  0.168  0.01700000000000007  1.0000
  O   O23       1.0  0.375  0.33199999999999996  0.9829999999999999  1.0000
  O   O24       1.0  0.12499999999999999  0.668  0.4829999999999999  1.0000
  O   O25       1.0  0.749  0.427  0.608  1.0000
  O   O26       1.0  0.751  0.573  0.10800000000000008  1.0000
  O   O27       1.0  0.251  0.9270000000000002  0.8919999999999999  1.0000
  O   O28       1.0  0.24900000000000008  0.07300000000000001  0.39199999999999996  1.0000
  O   O29       1.0  0.251  0.573  0.39199999999999996  1.0000
  O   O30       1.0  0.24900000000000008  0.427  0.8919999999999999  1.0000
  O   O31       1.0  0.749  0.07300000000000001  0.10800000000000008  1.0000
  O   O32       1.0  0.751  0.9270000000000002  0.608  1.0000
  O   O33       1.0  0.6419999999999999  0.717  0.3799999999999999  1.0000
  O   O34       1.0  0.858  0.28300000000000003  0.8799999999999998  1.0000
  O   O35       1.0  0.35800000000000004  0.21700000000000008  0.12000000000000005  1.0000
  O   O36       1.0  0.1419999999999999  0.783  0.62  1.0000
  O   O37       1.0  0.35800000000000004  0.28300000000000003  0.62  1.0000
  O   O38       1.0  0.1419999999999999  0.717  0.12000000000000005  1.0000
  O   O39       1.0  0.6419999999999999  0.783  0.8799999999999998  1.0000
  O   O40       1.0  0.858  0.21700000000000008  0.3799999999999999  1.0000
  O   O41       1.0  0.368  0.623  0.762  1.0000
  O   O42       1.0  0.13199999999999998  0.37700000000000006  0.262  1.0000
  O   O43       1.0  0.6319999999999999  0.123  0.738  1.0000
  O   O44       1.0  0.8679999999999999  0.877  0.23799999999999996  1.0000
  O   O45       1.0  0.6319999999999999  0.37700000000000006  0.23799999999999996  1.0000
  O   O46       1.0  0.8679999999999999  0.623  0.738  1.0000
  O   O47       1.0  0.368  0.877  0.262  1.0000
  O   O48       1.0  0.13199999999999998  0.123  0.762  1.0000
  O   O49       1.0  0.998  0.886  0.6589999999999998  1.0000
  O   O50       1.0  0.502  0.11399999999999999  0.15899999999999978  1.0000
  O   O51       1.0  0.0020000000000000018  0.3860000000000001  0.841  1.0000
  O   O52       1.0  0.49799999999999994  0.614  0.3410000000000001  1.0000
  O   O53       1.0  0.0020000000000000018  0.11399999999999999  0.3410000000000001  1.0000
  O   O54       1.0  0.49799999999999994  0.886  0.841  1.0000
  O   O55       1.0  0.998  0.614  0.15899999999999978  1.0000
  O   O56       1.0  0.502  0.3860000000000001  0.6589999999999998  1.0000
  O   O57       1.0  0.661  0.962  0.8489999999999999  1.0000
  O   O58       1.0  0.839  0.038000000000000034  0.3489999999999997  1.0000
  O   O59       1.0  0.3389999999999999  0.46199999999999997  0.6510000000000001  1.0000
  O   O60       1.0  0.161  0.538  0.15100000000000013  1.0000
  O   O61       1.0  0.3389999999999999  0.038000000000000034  0.15100000000000013  1.0000
  O   O62       1.0  0.161  0.962  0.6510000000000001  1.0000
  O   O63       1.0  0.661  0.538  0.3489999999999997  1.0000
  O   O64       1.0  0.839  0.46199999999999997  0.8489999999999999  1.0000
  O   O65       1.0  0.9089999999999998  0.643  0.9049999999999998  1.0000
  O   O66       1.0  0.591  0.357  0.40499999999999975  1.0000
  O   O67       1.0  0.09100000000000007  0.14300000000000002  0.5950000000000001  1.0000
  O   O68       1.0  0.40899999999999975  0.857  0.09500000000000007  1.0000
  O   O69       1.0  0.09100000000000007  0.357  0.09500000000000007  1.0000
  O   O70       1.0  0.40899999999999975  0.643  0.5950000000000001  1.0000
  O   O71       1.0  0.9089999999999998  0.857  0.40499999999999975  1.0000
  O   O72       1.0  0.591  0.14300000000000002  0.9049999999999998  1.0000
  O   O73       1.0  0.20699999999999993  0.8960000000000001  0.14  1.0000
  O   O74       1.0  0.29300000000000004  0.10399999999999987  0.64  1.0000
  O   O75       1.0  0.7929999999999999  0.39600000000000013  0.35999999999999993  1.0000
  O   O76       1.0  0.7069999999999999  0.6039999999999999  0.86  1.0000
  O   O77       1.0  0.7929999999999999  0.10399999999999987  0.86  1.0000
  O   O78       1.0  0.7069999999999999  0.8960000000000001  0.35999999999999993  1.0000
  O   O79       1.0  0.20699999999999993  0.6039999999999999  0.64  1.0000
  O   O80       1.0  0.29300000000000004  0.39600000000000013  0.14  1.0000
  O   O81       1.0  0.13099999999999998  0.17400000000000004  0.9489999999999997  1.0000
  O   O82       1.0  0.36899999999999994  0.826  0.4489999999999998  1.0000
  O   O83       1.0  0.869  0.6740000000000002  0.5510000000000002  1.0000
  O   O84       1.0  0.631  0.32599999999999996  0.05100000000000015  1.0000
  O   O85       1.0  0.869  0.826  0.05100000000000015  1.0000
  O   O86       1.0  0.631  0.17400000000000004  0.5510000000000002  1.0000
  O   O87       1.0  0.13099999999999998  0.32599999999999996  0.4489999999999998  1.0000
  O   O88       1.0  0.36899999999999994  0.6740000000000002  0.9489999999999997  1.0000
  O   O89       1.0  0.886  0.15  0.19999999999999996  1.0000
  O   O90       1.0  0.614  0.85  0.7  1.0000
  O   O91       1.0  0.11399999999999998  0.65  0.30000000000000004  1.0000
  O   O92       1.0  0.38600000000000007  0.35000000000000003  0.7999999999999999  1.0000
  O   O93       1.0  0.11399999999999998  0.85  0.7999999999999999  1.0000
  O   O94       1.0  0.38600000000000007  0.15  0.30000000000000004  1.0000
  O   O95       1.0  0.886  0.35000000000000003  0.7  1.0000
  O   O96       1.0  0.614  0.65  0.19999999999999996  1.0000
