data_image0
_chemical_formula_structural       Th16I48
_chemical_formula_sum              "Th16 I48"
_cell_length_a       8.735
_cell_length_b       20.297
_cell_length_c       14.661
_cell_angle_alpha    90.0
_cell_angle_beta     90.0
_cell_angle_gamma    90.0

_space_group_name_H-M_alt    "P 1"
_space_group_IT_number       1

loop_
  _space_group_symop_operation_xyz
  'x, y, z'

loop_
  _atom_site_type_symbol
  _atom_site_label
  _atom_site_symmetry_multiplicity
  _atom_site_fract_x
  _atom_site_fract_y
  _atom_site_fract_z
  _atom_site_occupancy
  Th  Th1       1.0  0.0  0.4999999999999999  0.0  1.0000
  Th  Th2       1.0  0.0  0.4999999999999999  0.49999999999999994  1.0000
  Th  Th3       1.0  0.5  0.0  0.0  1.0000
  Th  Th4       1.0  0.5  0.0  0.49999999999999994  1.0000
  Th  Th5       1.0  0.0  0.4999999999999999  0.24999999999999994  1.0000
  Th  Th6       1.0  0.0  0.49999999999999994  0.7499999999999999  1.0000
  Th  Th7       1.0  0.5  0.0  0.24999999999999994  1.0000
  Th  Th8       1.0  0.5  5.551115123125782e-17  0.7499999999999999  1.0000
  Th  Th9       1.0  0.327  0.1716  0.0  1.0000
  Th  Th10      1.0  0.673  0.8284  0.0  1.0000
  Th  Th11      1.0  0.673  0.1716  0.49999999999999994  1.0000
  Th  Th12      1.0  0.327  0.8284  0.49999999999999994  1.0000
  Th  Th13      1.0  0.827  0.6715999999999999  0.0  1.0000
  Th  Th14      1.0  0.173  0.32839999999999997  0.0  1.0000
  Th  Th15      1.0  0.173  0.6715999999999999  0.49999999999999994  1.0000
  Th  Th16      1.0  0.827  0.32839999999999997  0.49999999999999994  1.0000
  I   I1        1.0  0.25  0.24999999999999994  0.18259999999999998  1.0000
  I   I2        1.0  0.75  0.75  0.18259999999999998  1.0000
  I   I3        1.0  0.75  0.24999999999999994  0.31739999999999996  1.0000
  I   I4        1.0  0.25  0.75  0.31739999999999996  1.0000
  I   I5        1.0  0.75  0.75  0.8174  1.0000
  I   I6        1.0  0.25  0.24999999999999994  0.8174  1.0000
  I   I7        1.0  0.25  0.75  0.6826  1.0000
  I   I8        1.0  0.75  0.24999999999999994  0.6826  1.0000
  I   I9        1.0  0.2894  0.4509999999999999  0.1302  1.0000
  I   I10       1.0  0.7105999999999999  0.549  0.1302  1.0000
  I   I11       1.0  0.7105999999999999  0.4509999999999999  0.36979999999999996  1.0000
  I   I12       1.0  0.2894  0.549  0.36979999999999996  1.0000
  I   I13       1.0  0.7105999999999999  0.549  0.8697999999999999  1.0000
  I   I14       1.0  0.2894  0.4509999999999999  0.8697999999999999  1.0000
  I   I15       1.0  0.2894  0.549  0.6301999999999999  1.0000
  I   I16       1.0  0.7105999999999999  0.4509999999999999  0.6301999999999999  1.0000
  I   I17       1.0  0.7894  0.951  0.1302  1.0000
  I   I18       1.0  0.2106  0.04900000000000004  0.1302  1.0000
  I   I19       1.0  0.2106  0.951  0.36979999999999996  1.0000
  I   I20       1.0  0.7894  0.04900000000000004  0.36979999999999996  1.0000
  I   I21       1.0  0.2106  0.04900000000000004  0.8697999999999999  1.0000
  I   I22       1.0  0.7894  0.951  0.8697999999999999  1.0000
  I   I23       1.0  0.7894  0.04900000000000004  0.6301999999999999  1.0000
  I   I24       1.0  0.2106  0.951  0.6301999999999999  1.0000
  I   I25       1.0  0.1133  0.3773  0.3708  1.0000
  I   I26       1.0  0.8867  0.6226999999999999  0.3708  1.0000
  I   I27       1.0  0.8867  0.3773  0.12919999999999998  1.0000
  I   I28       1.0  0.1133  0.6226999999999999  0.12919999999999998  1.0000
  I   I29       1.0  0.8867  0.6226999999999999  0.6292  1.0000
  I   I30       1.0  0.1133  0.3773  0.6292  1.0000
  I   I31       1.0  0.1133  0.6226999999999999  0.8707999999999999  1.0000
  I   I32       1.0  0.8867  0.3773  0.8707999999999999  1.0000
  I   I33       1.0  0.6133  0.8773  0.3708  1.0000
  I   I34       1.0  0.3867  0.12269999999999996  0.3708  1.0000
  I   I35       1.0  0.3867  0.8773  0.12919999999999998  1.0000
  I   I36       1.0  0.6133  0.12269999999999996  0.12919999999999998  1.0000
  I   I37       1.0  0.3867  0.12269999999999996  0.6292  1.0000
  I   I38       1.0  0.6133  0.8773  0.6292  1.0000
  I   I39       1.0  0.6133  0.12269999999999996  0.8707999999999999  1.0000
  I   I40       1.0  0.3867  0.8773  0.8707999999999999  1.0000
  I   I41       1.0  0.9682000000000001  0.19939999999999994  0.0  1.0000
  I   I42       1.0  0.0318  0.8006  0.0  1.0000
  I   I43       1.0  0.0318  0.19939999999999994  0.49999999999999994  1.0000
  I   I44       1.0  0.9682000000000001  0.8006  0.49999999999999994  1.0000
  I   I45       1.0  0.4682  0.6994  0.0  1.0000
  I   I46       1.0  0.5318  0.30060000000000003  0.0  1.0000
  I   I47       1.0  0.5318  0.6994  0.49999999999999994  1.0000
  I   I48       1.0  0.4682  0.30060000000000003  0.49999999999999994  1.0000
