data_image0
_chemical_formula_structural       Mo4Rb4P8O28
_chemical_formula_sum              "Mo4 Rb4 P8 O28"
_cell_length_a       7.5237
_cell_length_b       10.3537
_cell_length_c       8.3998
_cell_angle_alpha    90.0
_cell_angle_beta     105.832
_cell_angle_gamma    90.0

_space_group_name_H-M_alt    "P 1"
_space_group_IT_number       1

loop_
  _space_group_symop_operation_xyz
  'x, y, z'

loop_
  _atom_site_type_symbol
  _atom_site_label
  _atom_site_symmetry_multiplicity
  _atom_site_fract_x
  _atom_site_fract_y
  _atom_site_fract_z
  _atom_site_occupancy
  Mo  Mo1       1.0  0.23554  0.60004  0.75928  1.0000
  Mo  Mo2       1.0  0.76446  0.1000399999999999  0.74072  1.0000
  Mo  Mo3       1.0  0.76446  0.39996  0.24072000000000005  1.0000
  Mo  Mo4       1.0  0.23553999999999997  0.8999600000000001  0.25927999999999995  1.0000
  Rb  Rb1       1.0  0.18674  0.3178  0.05344  1.0000
  Rb  Rb2       1.0  0.81326  0.8178000000000002  0.44656  1.0000
  Rb  Rb3       1.0  0.8132600000000001  0.6821999999999999  0.9465600000000001  1.0000
  Rb  Rb4       1.0  0.18674  0.18219999999999997  0.55344  1.0000
  P   P1        1.0  0.4375  0.6358  0.19040000000000007  1.0000
  P   P2        1.0  0.5625  0.13580000000000014  0.3096  1.0000
  P   P3        1.0  0.5625  0.36419999999999997  0.8096  1.0000
  P   P4        1.0  0.4375  0.8642  0.6904  1.0000
  P   P5        1.0  0.13090000000000004  0.9015  0.8272000000000003  1.0000
  P   P6        1.0  0.8691  0.4015  0.6727999999999998  1.0000
  P   P7        1.0  0.8691  0.09850000000000003  0.17279999999999984  1.0000
  P   P8        1.0  0.13090000000000002  0.5985  0.32720000000000016  1.0000
  O   O1        1.0  0.3325  0.5645  0.3102  1.0000
  O   O2        1.0  0.6675  0.0645  0.18980000000000002  1.0000
  O   O3        1.0  0.6675  0.4355  0.6898  1.0000
  O   O4        1.0  0.3325000000000001  0.9355000000000001  0.8102000000000001  1.0000
  O   O5        1.0  0.081  0.7326  0.2546  1.0000
  O   O6        1.0  0.9189999999999999  0.23260000000000014  0.2454  1.0000
  O   O7        1.0  0.9189999999999999  0.26739999999999997  0.7454000000000002  1.0000
  O   O8        1.0  0.08099999999999999  0.7674  0.7545999999999999  1.0000
  O   O9        1.0  0.6312  0.5796  0.2361  1.0000
  O   O10       1.0  0.3688  0.07960000000000012  0.2639000000000001  1.0000
  O   O11       1.0  0.3688  0.42039999999999994  0.7639  1.0000
  O   O12       1.0  0.6312  0.9204  0.7361000000000001  1.0000
  O   O13       1.0  0.1378  0.5914  0.505  1.0000
  O   O14       1.0  0.8622000000000001  0.09140000000000015  0.995  1.0000
  O   O15       1.0  0.8622  0.4086  0.495  1.0000
  O   O16       1.0  0.1378  0.9086  0.004999999999999893  1.0000
  O   O17       1.0  0.3242  0.6047  0.018200000000000008  1.0000
  O   O18       1.0  0.6758  0.10470000000000002  0.4818  1.0000
  O   O19       1.0  0.6758  0.3953  0.9818  1.0000
  O   O20       1.0  0.3242  0.8953  0.5182  1.0000
  O   O21       1.0  0.0016999999999999975  0.4996  0.2222  1.0000
  O   O22       1.0  0.9983  0.9996  0.2778  1.0000
  O   O23       1.0  0.9983000000000001  0.5004  0.7778000000000002  1.0000
  O   O24       1.0  0.0016999999999999828  0.00040000000000001146  0.7222  1.0000
  O   O25       1.0  0.4491  0.7786  0.235  1.0000
  O   O26       1.0  0.5509  0.27859999999999996  0.265  1.0000
  O   O27       1.0  0.5509  0.22140000000000007  0.765  1.0000
  O   O28       1.0  0.4491  0.7214  0.735  1.0000
