data_image0
_chemical_formula_structural       Y2N2Fe24
_chemical_formula_sum              "Y2 N2 Fe24"
_cell_length_a       8.659
_cell_length_b       8.659
_cell_length_c       4.793
_cell_angle_alpha    90.0
_cell_angle_beta     90.0
_cell_angle_gamma    90.0

_space_group_name_H-M_alt    "P 1"
_space_group_IT_number       1

loop_
  _space_group_symop_operation_xyz
  'x, y, z'

loop_
  _atom_site_type_symbol
  _atom_site_label
  _atom_site_symmetry_multiplicity
  _atom_site_fract_x
  _atom_site_fract_y
  _atom_site_fract_z
  _atom_site_occupancy
  Y   Y1        1.0  0.0  0.0  0.0  1.0000
  Y   Y2        1.0  0.5  0.5  0.5  1.0000
  N   N1        1.0  0.0  0.0  0.5  0.8000
  N   N2        1.0  0.5  0.5  0.0  0.8000
  Fe  Fe1       1.0  0.25  0.25  0.25  1.0000
  Fe  Fe2       1.0  0.7500000000000001  0.7500000000000001  0.25  1.0000
  Fe  Fe3       1.0  0.7500000000000001  0.25  0.25  1.0000
  Fe  Fe4       1.0  0.25  0.7500000000000001  0.25  1.0000
  Fe  Fe5       1.0  0.7500000000000001  0.7500000000000001  0.75  1.0000
  Fe  Fe6       1.0  0.25  0.25  0.75  1.0000
  Fe  Fe7       1.0  0.25  0.7500000000000001  0.75  1.0000
  Fe  Fe8       1.0  0.7500000000000001  0.25  0.75  1.0000
  Fe  Fe9       1.0  0.362  0.0  0.0  0.5300
  Fe  Fe10      1.0  0.638  0.0  0.0  0.5300
  Fe  Fe11      1.0  0.0  0.362  0.0  0.5300
  Fe  Fe12      1.0  0.0  0.638  0.0  0.5300
  Fe  Fe13      1.0  0.862  0.5  0.5  0.5300
  Fe  Fe14      1.0  0.138  0.5  0.5  0.5300
  Fe  Fe15      1.0  0.5  0.862  0.5  0.5300
  Fe  Fe16      1.0  0.5  0.138  0.5  0.5300
  Fe  Fe17      1.0  0.277  0.5  0.0  1.0000
  Fe  Fe18      1.0  0.723  0.5  0.0  1.0000
  Fe  Fe19      1.0  0.5  0.277  0.0  1.0000
  Fe  Fe20      1.0  0.5  0.723  0.0  1.0000
  Fe  Fe21      1.0  0.777  0.0  0.5  1.0000
  Fe  Fe22      1.0  0.223  0.0  0.5  1.0000
  Fe  Fe23      1.0  0.0  0.777  0.5  1.0000
  Fe  Fe24      1.0  0.0  0.223  0.5  1.0000
  Mo  Mo1       1.0  0.362  0.0  0.0  0.4700
  Mo  Mo2       1.0  0.638  0.0  0.0  0.4700
  Mo  Mo3       1.0  0.0  0.362  0.0  0.4700
  Mo  Mo4       1.0  0.0  0.638  0.0  0.4700
  Mo  Mo5       1.0  0.862  0.5  0.5  0.4700
  Mo  Mo6       1.0  0.138  0.5  0.5  0.4700
  Mo  Mo7       1.0  0.5  0.862  0.5  0.4700
  Mo  Mo8       1.0  0.5  0.138  0.5  0.4700
