data_image0
_chemical_formula_structural       Yb4In4Cu16
_chemical_formula_sum              "Yb4 In4 Cu16"
_cell_length_a       7.1469
_cell_length_b       7.1469
_cell_length_c       7.1469
_cell_angle_alpha    90.0
_cell_angle_beta     90.0
_cell_angle_gamma    90.0

_space_group_name_H-M_alt    "P 1"
_space_group_IT_number       1

loop_
  _space_group_symop_operation_xyz
  'x, y, z'

loop_
  _atom_site_type_symbol
  _atom_site_label
  _atom_site_symmetry_multiplicity
  _atom_site_fract_x
  _atom_site_fract_y
  _atom_site_fract_z
  _atom_site_occupancy
  Yb  Yb1       1.0  0.0  0.0  0.0  1.0000
  Yb  Yb2       1.0  0.0  0.5  0.5  1.0000
  Yb  Yb3       1.0  0.5  0.0  0.5  1.0000
  Yb  Yb4       1.0  0.5  0.5  0.0  1.0000
  In  In1       1.0  0.25  0.25  0.25  0.8100
  In  In2       1.0  0.7500000000000001  0.7500000000000001  0.25  0.8100
  In  In3       1.0  0.7500000000000001  0.25  0.7500000000000001  0.8100
  In  In4       1.0  0.25  0.7500000000000001  0.7500000000000001  0.8100
  Cu  Cu1       1.0  0.6246500000000003  0.6246500000000003  0.6246500000000003  1.0000
  Cu  Cu2       1.0  0.37534999999999985  0.37534999999999985  0.6246500000000003  1.0000
  Cu  Cu3       1.0  0.37534999999999985  0.6246500000000003  0.37534999999999985  1.0000
  Cu  Cu4       1.0  0.6246500000000003  0.37534999999999985  0.37534999999999985  1.0000
  Cu  Cu5       1.0  0.6246500000000003  0.12465000000000016  0.12465000000000016  1.0000
  Cu  Cu6       1.0  0.37534999999999985  0.8753499999999999  0.12465000000000016  1.0000
  Cu  Cu7       1.0  0.37534999999999985  0.12465000000000016  0.8753499999999999  1.0000
  Cu  Cu8       1.0  0.6246500000000003  0.8753499999999999  0.8753499999999999  1.0000
  Cu  Cu9       1.0  0.12465000000000016  0.6246500000000003  0.12465000000000016  1.0000
  Cu  Cu10      1.0  0.8753499999999999  0.37534999999999985  0.12465000000000016  1.0000
  Cu  Cu11      1.0  0.8753499999999999  0.6246500000000003  0.8753499999999999  1.0000
  Cu  Cu12      1.0  0.12465000000000016  0.37534999999999985  0.8753499999999999  1.0000
  Cu  Cu13      1.0  0.12465000000000016  0.12465000000000016  0.6246500000000003  1.0000
  Cu  Cu14      1.0  0.8753499999999999  0.8753499999999999  0.6246500000000003  1.0000
  Cu  Cu15      1.0  0.8753499999999999  0.12465000000000016  0.37534999999999985  1.0000
  Cu  Cu16      1.0  0.12465000000000016  0.8753499999999999  0.37534999999999985  1.0000
  Rh  Rh1       1.0  0.25  0.25  0.25  0.1900
  Rh  Rh2       1.0  0.7500000000000001  0.7500000000000001  0.25  0.1900
  Rh  Rh3       1.0  0.7500000000000001  0.25  0.7500000000000001  0.1900
  Rh  Rh4       1.0  0.25  0.7500000000000001  0.7500000000000001  0.1900
