data_image0
_chemical_formula_structural       Sn5Fe3
_chemical_formula_sum              "Sn5 Fe3"
_cell_length_a       5.3311
_cell_length_b       5.3311
_cell_length_c       4.4332
_cell_angle_alpha    90.0
_cell_angle_beta     90.0
_cell_angle_gamma    119.99999999999999

_space_group_name_H-M_alt    "P 1"
_space_group_IT_number       1

loop_
  _space_group_symop_operation_xyz
  'x, y, z'

loop_
  _atom_site_type_symbol
  _atom_site_label
  _atom_site_symmetry_multiplicity
  _atom_site_fract_x
  _atom_site_fract_y
  _atom_site_fract_z
  _atom_site_occupancy
  Sn  Sn1       1.0  0.0  0.0  0.0  1.0000
  Sn  Sn2       1.0  0.333  0.666  0.507  1.0000
  Sn  Sn3       1.0  0.334  0.667  0.507  1.0000
  Sn  Sn4       1.0  0.6670000000000001  0.33399999999999996  0.507  1.0000
  Sn  Sn5       1.0  0.666  0.333  0.507  1.0000
  Fe  Fe1       1.0  0.5  0.0  0.0051  1.0000
  Fe  Fe2       1.0  0.0  0.5  0.0051  1.0000
  Fe  Fe3       1.0  0.5  0.5  0.0051  1.0000
