data_image0
_chemical_formula_structural       Pb4Sr4Y2Cu6O16
_chemical_formula_sum              "Pb4 Sr4 Y2 Cu6 O16"
_cell_length_a       5.3835
_cell_length_b       5.4091
_cell_length_c       15.784
_cell_angle_alpha    90.0
_cell_angle_beta     90.0
_cell_angle_gamma    90.0

_space_group_name_H-M_alt    "P 1"
_space_group_IT_number       1

loop_
  _space_group_symop_operation_xyz
  'x, y, z'

loop_
  _atom_site_type_symbol
  _atom_site_label
  _atom_site_symmetry_multiplicity
  _atom_site_fract_x
  _atom_site_fract_y
  _atom_site_fract_z
  _atom_site_occupancy
  Pb  Pb1       1.0  0.0  0.5034999999999998  0.3869500000000001  1.0000
  Pb  Pb2       1.0  0.0  0.49650000000000016  0.6130499999999999  1.0000
  Pb  Pb3       1.0  0.5  0.9965  0.3869500000000001  1.0000
  Pb  Pb4       1.0  0.5  0.0034999999999998366  0.6130499999999999  1.0000
  Sr  Sr1       1.0  0.0  0.999  0.21959  0.9840
  Sr  Sr2       1.0  0.0  0.001  0.7804100000000002  0.9840
  Sr  Sr3       1.0  0.5  0.501  0.21959  0.9840
  Sr  Sr4       1.0  0.5  0.49899999999999994  0.7804100000000002  0.9840
  Y   Y1        1.0  0.0  0.0  0.0  0.7300
  Y   Y2        1.0  0.5  0.49999999999999994  0.0  0.7300
  Cu  Cu1       1.0  0.0  0.0  0.5  0.9890
  Cu  Cu2       1.0  0.5  0.49999999999999994  0.5  0.9890
  Cu  Cu3       1.0  0.0  0.501  0.10597000000000002  0.9900
  Cu  Cu4       1.0  0.0  0.49899999999999994  0.8940300000000001  0.9900
  Cu  Cu5       1.0  0.5  0.999  0.10597000000000002  0.9900
  Cu  Cu6       1.0  0.5  0.0009999999999998899  0.8940300000000001  0.9900
  O   O1        1.0  0.0  0.4954999999999999  0.2517700000000001  0.9650
  O   O2        1.0  0.0  0.5045000000000001  0.7482300000000001  0.9650
  O   O3        1.0  0.5  0.0045000000000000595  0.2517700000000001  0.9650
  O   O4        1.0  0.5  0.9954999999999999  0.7482300000000001  0.9650
  O   O5        1.0  0.0  0.937  0.3844  0.9000
  O   O6        1.0  0.0  0.063  0.6156  0.9000
  O   O7        1.0  0.5  0.5629999999999998  0.3844  0.9000
  O   O8        1.0  0.5  0.437  0.6156  0.9000
  O   O9        1.0  0.25  0.24999999999999994  0.09430000000000002  1.0000
  O   O10       1.0  0.25  0.75  0.9057000000000001  1.0000
  O   O11       1.0  0.7500000000000001  0.75  0.9057000000000001  1.0000
  O   O12       1.0  0.7500000000000001  0.24999999999999994  0.09430000000000002  1.0000
  O   O13       1.0  0.25  0.24999999999999994  0.9049000000000001  1.0000
  O   O14       1.0  0.25  0.75  0.09510000000000003  1.0000
  O   O15       1.0  0.7500000000000001  0.75  0.09510000000000003  1.0000
  O   O16       1.0  0.7500000000000001  0.24999999999999994  0.9049000000000001  1.0000
  Ca  Ca1       1.0  0.0  0.0  0.0  0.2700
  Ca  Ca2       1.0  0.5  0.49999999999999994  0.0  0.2700
