data_image0
_chemical_formula_structural       Cd6As4
_chemical_formula_sum              "Cd6 As4"
_cell_length_a       2.82
_cell_length_b       5.52
_cell_length_c       11.46
_cell_angle_alpha    90.0
_cell_angle_beta     90.0
_cell_angle_gamma    90.0

_space_group_name_H-M_alt    "P 1"
_space_group_IT_number       1

loop_
  _space_group_symop_operation_xyz
  'x, y, z'

loop_
  _atom_site_type_symbol
  _atom_site_label
  _atom_site_symmetry_multiplicity
  _atom_site_fract_x
  _atom_site_fract_y
  _atom_site_fract_z
  _atom_site_occupancy
  Cd  Cd1       1.0  0.0  0.5  0.5  1.0000
  Cd  Cd2       1.0  0.5  0.0  0.5  1.0000
  Cd  Cd3       1.0  0.5  0.5  0.0  1.0000
  Cd  Cd4       1.0  0.0  0.5  0.0  1.0000
  Cd  Cd5       1.0  0.5  0.0  0.0  1.0000
  Cd  Cd6       1.0  0.0  0.0  0.5  1.0000
  As  As1       1.0  0.25  0.25  0.25  1.0000
  As  As2       1.0  0.7499999999999999  0.75  0.25  1.0000
  As  As3       1.0  0.7499999999999999  0.25  0.75  1.0000
  As  As4       1.0  0.25  0.75  0.75  1.0000
