data_image0
_chemical_formula_structural       Ag4As8Cu4O32
_chemical_formula_sum              "Ag4 As8 Cu4 O32"
_cell_length_a       9.716
_cell_length_b       7.704
_cell_length_c       9.209
_cell_angle_alpha    90.0
_cell_angle_beta     103.73
_cell_angle_gamma    90.0

_space_group_name_H-M_alt    "P 1"
_space_group_IT_number       1

loop_
  _space_group_symop_operation_xyz
  'x, y, z'

loop_
  _atom_site_type_symbol
  _atom_site_label
  _atom_site_symmetry_multiplicity
  _atom_site_fract_x
  _atom_site_fract_y
  _atom_site_fract_z
  _atom_site_occupancy
  Ag  Ag1       1.0  0.97033  0.7514999999999997  0.22363  1.0000
  Ag  Ag2       1.0  0.52967  0.25149999999999983  0.77637  1.0000
  Ag  Ag3       1.0  0.029669999999999988  0.24850000000000014  0.77637  1.0000
  Ag  Ag4       1.0  0.47033000000000014  0.7485  0.22363  1.0000
  As  As1       1.0  0.82207  0.3032  0.07017  1.0000
  As  As2       1.0  0.67793  0.8031999999999999  0.92983  1.0000
  As  As3       1.0  0.17793000000000003  0.6967999999999999  0.92983  1.0000
  As  As4       1.0  0.3220700000000001  0.19679999999999997  0.07017  1.0000
  As  As5       1.0  0.2945  0.5092  0.47073  1.0000
  As  As6       1.0  0.20550000000000004  0.009199999999999875  0.5292700000000001  1.0000
  As  As7       1.0  0.7055  0.4908  0.5292700000000001  1.0000
  As  As8       1.0  0.7945  0.9908  0.47073  1.0000
  Cu  Cu1       1.0  0.4918  0.17799999999999994  0.4048  1.0000
  Cu  Cu2       1.0  0.008200000000000018  0.6779999999999998  0.5952000000000001  1.0000
  Cu  Cu3       1.0  0.5082  0.822  0.5952000000000001  1.0000
  Cu  Cu4       1.0  0.9918  0.322  0.4048  1.0000
  O   O1        1.0  0.9224  0.11929999999999998  0.0798  1.0000
  O   O2        1.0  0.5776000000000001  0.6192999999999999  0.9202000000000001  1.0000
  O   O3        1.0  0.07760000000000006  0.8806999999999999  0.9202000000000001  1.0000
  O   O4        1.0  0.42240000000000016  0.3807  0.0798  1.0000
  O   O5        1.0  0.8782  0.4346  0.2157  1.0000
  O   O6        1.0  0.6218  0.9345999999999999  0.7843  1.0000
  O   O7        1.0  0.12180000000000002  0.5653999999999999  0.7843  1.0000
  O   O8        1.0  0.3782000000000001  0.06540000000000001  0.2157  1.0000
  O   O9        1.0  0.6559  0.23439999999999994  0.043  1.0000
  O   O10       1.0  0.8441  0.7343999999999999  0.9570000000000001  1.0000
  O   O11       1.0  0.34409999999999996  0.7656000000000001  0.9570000000000001  1.0000
  O   O12       1.0  0.15589999999999993  0.2656  0.043  1.0000
  O   O13       1.0  0.8461  0.4005  0.9107  1.0000
  O   O14       1.0  0.6539  0.9005000000000001  0.0893  1.0000
  O   O15       1.0  0.15390000000000004  0.5994999999999999  0.0893  1.0000
  O   O16       1.0  0.34609999999999985  0.09949999999999996  0.9107  1.0000
  O   O17       1.0  0.3471000000000001  0.4693  0.6622000000000002  1.0000
  O   O18       1.0  0.15289999999999995  0.9692999999999999  0.33779999999999993  1.0000
  O   O19       1.0  0.6529  0.5306999999999998  0.33779999999999993  1.0000
  O   O20       1.0  0.8471000000000001  0.0307  0.6622000000000002  1.0000
  O   O21       1.0  0.33930000000000005  0.3441  0.37680000000000013  1.0000
  O   O22       1.0  0.16069999999999995  0.8441  0.6232  1.0000
  O   O23       1.0  0.6607  0.6558999999999999  0.6232  1.0000
  O   O24       1.0  0.8393000000000002  0.15589999999999998  0.37680000000000013  1.0000
  O   O25       1.0  0.11570000000000003  0.5282999999999998  0.4270000000000001  1.0000
  O   O26       1.0  0.38430000000000003  0.02829999999999977  0.573  1.0000
  O   O27       1.0  0.8843  0.4717000000000001  0.573  1.0000
  O   O28       1.0  0.6157000000000001  0.9717  0.4270000000000001  1.0000
  O   O29       1.0  0.37639999999999996  0.6938  0.4405  1.0000
  O   O30       1.0  0.12360000000000003  0.19379999999999997  0.5595  1.0000
  O   O31       1.0  0.6236  0.3062  0.5595  1.0000
  O   O32       1.0  0.8763999999999998  0.8062  0.4405  1.0000
