data_image0
_chemical_formula_structural       U4B48
_chemical_formula_sum              "U4 B48"
_cell_length_a       7.468
_cell_length_b       7.468
_cell_length_c       7.468
_cell_angle_alpha    90.0
_cell_angle_beta     90.0
_cell_angle_gamma    90.0

_space_group_name_H-M_alt    "P 1"
_space_group_IT_number       1

loop_
  _space_group_symop_operation_xyz
  'x, y, z'

loop_
  _atom_site_type_symbol
  _atom_site_label
  _atom_site_symmetry_multiplicity
  _atom_site_fract_x
  _atom_site_fract_y
  _atom_site_fract_z
  _atom_site_occupancy
  U   U1        1.0  0.0  0.0  0.0  1.0000
  U   U2        1.0  0.0  0.5  0.5  1.0000
  U   U3        1.0  0.5  0.0  0.5  1.0000
  U   U4        1.0  0.5  0.5  0.0  1.0000
  B   B1        1.0  0.5  0.16600000000000006  0.16600000000000006  1.0000
  B   B2        1.0  0.16600000000000006  0.16600000000000006  0.5  1.0000
  B   B3        1.0  0.16600000000000006  0.5  0.16600000000000006  1.0000
  B   B4        1.0  0.5  0.8340000000000001  0.8340000000000001  1.0000
  B   B5        1.0  0.16600000000000006  0.8340000000000001  0.5  1.0000
  B   B6        1.0  0.16600000000000006  0.5  0.8340000000000001  1.0000
  B   B7        1.0  0.5  0.16600000000000006  0.8340000000000001  1.0000
  B   B8        1.0  0.8340000000000001  0.16600000000000006  0.5  1.0000
  B   B9        1.0  0.8340000000000001  0.5  0.8340000000000001  1.0000
  B   B10       1.0  0.5  0.8340000000000001  0.16600000000000006  1.0000
  B   B11       1.0  0.8340000000000001  0.8340000000000001  0.5  1.0000
  B   B12       1.0  0.8340000000000001  0.5  0.16600000000000006  1.0000
  B   B13       1.0  0.5  0.666  0.666  1.0000
  B   B14       1.0  0.0  0.16600000000000006  0.666  1.0000
  B   B15       1.0  0.0  0.666  0.16600000000000006  1.0000
  B   B16       1.0  0.16600000000000006  0.666  0.0  1.0000
  B   B17       1.0  0.666  0.16600000000000006  0.0  1.0000
  B   B18       1.0  0.666  0.666  0.5  1.0000
  B   B19       1.0  0.16600000000000006  0.0  0.666  1.0000
  B   B20       1.0  0.666  0.5  0.666  1.0000
  B   B21       1.0  0.666  0.0  0.16600000000000006  1.0000
  B   B22       1.0  0.5  0.334  0.334  1.0000
  B   B23       1.0  0.0  0.8340000000000001  0.334  1.0000
  B   B24       1.0  0.0  0.334  0.8340000000000001  1.0000
  B   B25       1.0  0.16600000000000006  0.334  0.0  1.0000
  B   B26       1.0  0.666  0.8340000000000001  0.0  1.0000
  B   B27       1.0  0.666  0.334  0.5  1.0000
  B   B28       1.0  0.16600000000000006  0.0  0.334  1.0000
  B   B29       1.0  0.666  0.5  0.334  1.0000
  B   B30       1.0  0.666  0.0  0.8340000000000001  1.0000
  B   B31       1.0  0.5  0.666  0.334  1.0000
  B   B32       1.0  0.0  0.16600000000000006  0.334  1.0000
  B   B33       1.0  0.0  0.666  0.8340000000000001  1.0000
  B   B34       1.0  0.8340000000000001  0.666  0.0  1.0000
  B   B35       1.0  0.334  0.16600000000000006  0.0  1.0000
  B   B36       1.0  0.334  0.666  0.5  1.0000
  B   B37       1.0  0.8340000000000001  0.0  0.334  1.0000
  B   B38       1.0  0.334  0.5  0.334  1.0000
  B   B39       1.0  0.334  0.0  0.8340000000000001  1.0000
  B   B40       1.0  0.5  0.334  0.666  1.0000
  B   B41       1.0  0.0  0.8340000000000001  0.666  1.0000
  B   B42       1.0  0.0  0.334  0.16600000000000006  1.0000
  B   B43       1.0  0.8340000000000001  0.334  0.0  1.0000
  B   B44       1.0  0.334  0.8340000000000001  0.0  1.0000
  B   B45       1.0  0.334  0.334  0.5  1.0000
  B   B46       1.0  0.8340000000000001  0.0  0.666  1.0000
  B   B47       1.0  0.334  0.5  0.666  1.0000
  B   B48       1.0  0.334  0.0  0.16600000000000006  1.0000
