data_image0
_chemical_formula_structural       Fe8F32N8
_chemical_formula_sum              "Fe8 F32 N8"
_cell_length_a       7.559
_cell_length_b       7.575
_cell_length_c       12.754
_cell_angle_alpha    90.0
_cell_angle_beta     90.0
_cell_angle_gamma    90.0

_space_group_name_H-M_alt    "P 1"
_space_group_IT_number       1

loop_
  _space_group_symop_operation_xyz
  'x, y, z'

loop_
  _atom_site_type_symbol
  _atom_site_label
  _atom_site_symmetry_multiplicity
  _atom_site_fract_x
  _atom_site_fract_y
  _atom_site_fract_z
  _atom_site_occupancy
  Fe  Fe1       1.0  0.0  0.0  0.0  1.0000
  Fe  Fe2       1.0  0.5  0.49999999999999994  0.5  1.0000
  Fe  Fe3       1.0  0.0  0.49999999999999994  0.0  1.0000
  Fe  Fe4       1.0  0.5  0.0  0.5  1.0000
  Fe  Fe5       1.0  0.0  0.0  0.5  1.0000
  Fe  Fe6       1.0  0.5  0.49999999999999994  0.0  1.0000
  Fe  Fe7       1.0  0.0  0.49999999999999994  0.5  1.0000
  Fe  Fe8       1.0  0.5  0.0  0.0  1.0000
  F   F1        1.0  0.036399999999999995  0.24999999999999994  0.9690999999999999  1.0000
  F   F2        1.0  0.5364  0.24999999999999997  0.5309  1.0000
  F   F3        1.0  0.9636  0.75  0.030899999999999997  1.0000
  F   F4        1.0  0.4636  0.75  0.4691  1.0000
  F   F5        1.0  0.2501  0.0047  0.4694999999999999  1.0000
  F   F6        1.0  0.7500999999999999  0.49529999999999996  0.030500000000000083  1.0000
  F   F7        1.0  0.7499  0.5047  0.5305000000000001  1.0000
  F   F8        1.0  0.2499  0.9952999999999999  0.9694999999999999  1.0000
  F   F9        1.0  0.7499  0.9952999999999999  0.5305000000000001  1.0000
  F   F10       1.0  0.2499  0.5047  0.9694999999999999  1.0000
  F   F11       1.0  0.2501  0.49529999999999996  0.4694999999999999  1.0000
  F   F12       1.0  0.7500999999999999  0.0047  0.030500000000000083  1.0000
  F   F13       1.0  0.4492  0.24999999999999994  0.0187  1.0000
  F   F14       1.0  0.9492  0.24999999999999997  0.4813  1.0000
  F   F15       1.0  0.5508  0.75  0.9812999999999998  1.0000
  F   F16       1.0  0.05080000000000001  0.75  0.5187  1.0000
  F   F17       1.0  0.0484  0.0352  0.1418  1.0000
  F   F18       1.0  0.5484  0.46479999999999994  0.35819999999999996  1.0000
  F   F19       1.0  0.9516  0.5352  0.8582  1.0000
  F   F20       1.0  0.45159999999999995  0.9648  0.6418  1.0000
  F   F21       1.0  0.9516  0.9648  0.8582  1.0000
  F   F22       1.0  0.45159999999999995  0.5352  0.6418  1.0000
  F   F23       1.0  0.0484  0.46479999999999994  0.1418  1.0000
  F   F24       1.0  0.5484  0.0352  0.35819999999999996  1.0000
  F   F25       1.0  0.036  0.033099999999999984  0.6438  1.0000
  F   F26       1.0  0.536  0.4668999999999999  0.8562  1.0000
  F   F27       1.0  0.964  0.5331  0.35619999999999996  1.0000
  F   F28       1.0  0.464  0.9669  0.14380000000000015  1.0000
  F   F29       1.0  0.964  0.9669  0.35619999999999996  1.0000
  F   F30       1.0  0.464  0.5331  0.14380000000000015  1.0000
  F   F31       1.0  0.036  0.4668999999999999  0.6438  1.0000
  F   F32       1.0  0.536  0.033099999999999984  0.8562  1.0000
  N   N1        1.0  0.288  0.24999999999999994  0.2562  1.0000
  N   N2        1.0  0.788  0.24999999999999997  0.24380000000000002  1.0000
  N   N3        1.0  0.712  0.75  0.7438  1.0000
  N   N4        1.0  0.21200000000000002  0.75  0.7562  1.0000
  N   N5        1.0  0.2747  0.24999999999999994  0.7594  1.0000
  N   N6        1.0  0.7746999999999999  0.24999999999999997  0.7406  1.0000
  N   N7        1.0  0.7253000000000001  0.75  0.24060000000000006  1.0000
  N   N8        1.0  0.2253  0.75  0.25939999999999985  1.0000
