data_image0
_chemical_formula_structural       Li4Sb4O12H4
_chemical_formula_sum              "Li4 Sb4 O12 H4"
_cell_length_a       4.726
_cell_length_b       8.659
_cell_length_c       5.2306
_cell_angle_alpha    90.0
_cell_angle_beta     90.0
_cell_angle_gamma    90.0

_space_group_name_H-M_alt    "P 1"
_space_group_IT_number       1

loop_
  _space_group_symop_operation_xyz
  'x, y, z'

loop_
  _atom_site_type_symbol
  _atom_site_label
  _atom_site_symmetry_multiplicity
  _atom_site_fract_x
  _atom_site_fract_y
  _atom_site_fract_z
  _atom_site_occupancy
  Li  Li1       1.0  0.0  0.717  0.25  0.4000
  Li  Li2       1.0  0.5  0.783  0.25  0.4000
  Li  Li3       1.0  0.0  0.28300000000000003  0.7500000000000001  0.4000
  Li  Li4       1.0  0.5  0.21700000000000008  0.7500000000000001  0.4000
  Sb  Sb1       1.0  0.0  0.097  0.25  1.0000
  Sb  Sb2       1.0  0.5  0.403  0.25  1.0000
  Sb  Sb3       1.0  0.0  0.903  0.7500000000000001  1.0000
  Sb  Sb4       1.0  0.5  0.597  0.7500000000000001  1.0000
  O   O1        1.0  0.25  0.25  0.397  1.0000
  O   O2        1.0  0.75  0.25  0.10299999999999998  1.0000
  O   O3        1.0  0.75  0.7500000000000001  0.603  1.0000
  O   O4        1.0  0.25  0.7500000000000001  0.897  1.0000
  O   O5        1.0  0.222  0.071  0.929  1.0000
  O   O6        1.0  0.778  0.071  0.5710000000000001  1.0000
  O   O7        1.0  0.278  0.429  0.929  1.0000
  O   O8        1.0  0.722  0.429  0.5710000000000001  1.0000
  O   O9        1.0  0.778  0.929  0.07099999999999995  1.0000
  O   O10       1.0  0.222  0.929  0.42900000000000005  1.0000
  O   O11       1.0  0.722  0.5710000000000001  0.07099999999999995  1.0000
  O   O12       1.0  0.278  0.5710000000000001  0.42900000000000005  1.0000
  H   H1        1.0  0.0  0.0  0.0  0.6000
  H   H2        1.0  0.0  0.0  0.5  0.6000
  H   H3        1.0  0.5  0.5  0.0  0.6000
  H   H4        1.0  0.5  0.5  0.5  0.6000
