data_image0
_chemical_formula_structural       Sb8K2Ag4S8Ag16K4S16
_chemical_formula_sum              "Sb8 K6 Ag20 S24"
_cell_length_a       10.8844
_cell_length_b       10.8844
_cell_length_c       11.5046
_cell_angle_alpha    90.0
_cell_angle_beta     90.0
_cell_angle_gamma    90.0

_space_group_name_H-M_alt    "P 1"
_space_group_IT_number       1

loop_
  _space_group_symop_operation_xyz
  'x, y, z'

loop_
  _atom_site_type_symbol
  _atom_site_label
  _atom_site_symmetry_multiplicity
  _atom_site_fract_x
  _atom_site_fract_y
  _atom_site_fract_z
  _atom_site_occupancy
  Sb  Sb1       1.0  0.62681  0.11397  0.5  1.0000
  Sb  Sb2       1.0  0.37319  0.88603  0.5  1.0000
  Sb  Sb3       1.0  0.88603  0.62681  0.5  1.0000
  Sb  Sb4       1.0  0.11397  0.37319  0.5  1.0000
  Sb  Sb5       1.0  0.12680999999999987  0.61397  0.0  1.0000
  Sb  Sb6       1.0  0.87319  0.38602999999999993  0.0  1.0000
  Sb  Sb7       1.0  0.38602999999999993  0.12680999999999987  0.0  1.0000
  Sb  Sb8       1.0  0.61397  0.87319  0.0  1.0000
  K   K1        1.0  0.5  0.5  0.5  1.0000
  K   K2        1.0  0.0  0.0  0.0  1.0000
  Ag  Ag1       1.0  0.5  0.0  0.25  0.5000
  Ag  Ag2       1.0  0.0  0.5  0.25  0.5000
  Ag  Ag3       1.0  0.0  0.5  0.7500000000000001  0.5000
  Ag  Ag4       1.0  0.5  0.0  0.7500000000000001  0.5000
  S   S1        1.0  0.8207  0.8383000000000002  0.5  1.0000
  S   S2        1.0  0.17930000000000001  0.1617  0.5  1.0000
  S   S3        1.0  0.1617  0.8207  0.5  1.0000
  S   S4        1.0  0.8383000000000002  0.17930000000000001  0.5  1.0000
  S   S5        1.0  0.3207  0.3383  0.0  1.0000
  S   S6        1.0  0.6793  0.6617  0.0  1.0000
  S   S7        1.0  0.6617  0.3207  0.0  1.0000
  S   S8        1.0  0.3383  0.6793  0.0  1.0000
  Ag  Ag5       1.0  0.67229  0.16694  0.16423  1.0000
  Ag  Ag6       1.0  0.32770999999999995  0.83306  0.16423  1.0000
  Ag  Ag7       1.0  0.83306  0.67229  0.16423  1.0000
  Ag  Ag8       1.0  0.16694  0.32770999999999995  0.16423  1.0000
  Ag  Ag9       1.0  0.17229000000000005  0.66694  0.66423  1.0000
  Ag  Ag10      1.0  0.8277100000000001  0.33306  0.66423  1.0000
  Ag  Ag11      1.0  0.33306  0.17229000000000005  0.66423  1.0000
  Ag  Ag12      1.0  0.66694  0.8277100000000001  0.66423  1.0000
  Ag  Ag13      1.0  0.32770999999999995  0.83306  0.8357700000000001  1.0000
  Ag  Ag14      1.0  0.67229  0.16694  0.8357700000000001  1.0000
  Ag  Ag15      1.0  0.16694  0.32770999999999995  0.8357700000000001  1.0000
  Ag  Ag16      1.0  0.83306  0.67229  0.8357700000000001  1.0000
  Ag  Ag17      1.0  0.8277100000000001  0.33306  0.33577  1.0000
  Ag  Ag18      1.0  0.17229000000000005  0.66694  0.33577  1.0000
  Ag  Ag19      1.0  0.66694  0.8277100000000001  0.33577  1.0000
  Ag  Ag20      1.0  0.33306  0.17229000000000005  0.33577  1.0000
  K   K3        1.0  0.5  0.5  0.1708  1.0000
  K   K4        1.0  0.0  0.0  0.6708000000000001  1.0000
  K   K5        1.0  0.5  0.5  0.8292  1.0000
  K   K6        1.0  0.0  0.0  0.3292  1.0000
  S   S9        1.0  0.5515  0.2414  0.34140000000000004  1.0000
  S   S10       1.0  0.44850000000000007  0.7585999999999998  0.34140000000000004  1.0000
  S   S11       1.0  0.7585999999999998  0.5515  0.34140000000000004  1.0000
  S   S12       1.0  0.2414  0.44850000000000007  0.34140000000000004  1.0000
  S   S13       1.0  0.05149999999999988  0.7414000000000002  0.8414  1.0000
  S   S14       1.0  0.9485  0.2586  0.8414  1.0000
  S   S15       1.0  0.2586  0.05149999999999988  0.8414  1.0000
  S   S16       1.0  0.7414000000000002  0.9485  0.8414  1.0000
  S   S17       1.0  0.44850000000000007  0.7585999999999998  0.6586000000000001  1.0000
  S   S18       1.0  0.5515  0.2414  0.6586000000000001  1.0000
  S   S19       1.0  0.2414  0.44850000000000007  0.6586000000000001  1.0000
  S   S20       1.0  0.7585999999999998  0.5515  0.6586000000000001  1.0000
  S   S21       1.0  0.9485  0.2586  0.15859999999999996  1.0000
  S   S22       1.0  0.05149999999999988  0.7414000000000002  0.15859999999999996  1.0000
  S   S23       1.0  0.7414000000000002  0.9485  0.15859999999999996  1.0000
  S   S24       1.0  0.2586  0.05149999999999988  0.15859999999999996  1.0000
