data_image0
_chemical_formula_structural       Pb3C6S6
_chemical_formula_sum              "Pb3 C6 S6"
_cell_length_a       8.964447
_cell_length_b       8.964447
_cell_length_c       3.957573
_cell_angle_alpha    90.0
_cell_angle_beta     90.0
_cell_angle_gamma    119.99999999999999

_space_group_name_H-M_alt    "P 1"
_space_group_IT_number       1

loop_
  _space_group_symop_operation_xyz
  'x, y, z'

loop_
  _atom_site_type_symbol
  _atom_site_label
  _atom_site_symmetry_multiplicity
  _atom_site_fract_x
  _atom_site_fract_y
  _atom_site_fract_z
  _atom_site_occupancy
  Pb  Pb1       1.0  0.4999999999999999  0.9999999999999999  0.49999999999999994  1.0000
  Pb  Pb2       1.0  0.5  0.49999999999999994  0.49999999999999994  1.0000
  Pb  Pb3       1.0  0.0  0.49999999999999994  0.49999999999999994  1.0000
  C   C1        1.0  0.08919999999999993  0.9107999999999999  0.0  1.0000
  C   C2        1.0  0.08919999999999999  0.17839999999999995  0.0  1.0000
  C   C3        1.0  0.9108000000000002  0.08919999999999997  0.0  1.0000
  C   C4        1.0  0.9108000000000002  0.8215999999999999  0.0  1.0000
  C   C5        1.0  0.17839999999999998  0.08919999999999997  0.0  1.0000
  C   C6        1.0  0.8216  0.9107999999999999  0.0  1.0000
  S   S1        1.0  0.2042799999999999  0.7957199999999999  0.0  1.0000
  S   S2        1.0  0.20427999999999993  0.40855999999999987  0.0  1.0000
  S   S3        1.0  0.79572  0.20427999999999993  0.0  1.0000
  S   S4        1.0  0.79572  0.5914400000000001  0.0  1.0000
  S   S5        1.0  0.4085599999999999  0.20427999999999993  0.0  1.0000
  S   S6        1.0  0.59144  0.7957199999999999  0.0  1.0000
