data_image0
_chemical_formula_structural       CaBr2O6H12
_chemical_formula_sum              "Ca1 Br2 O6 H12"
_cell_length_a       8.164
_cell_length_b       8.164
_cell_length_c       4.016
_cell_angle_alpha    90.0
_cell_angle_beta     90.0
_cell_angle_gamma    119.99999999999999

_space_group_name_H-M_alt    "P 1"
_space_group_IT_number       1

loop_
  _space_group_symop_operation_xyz
  'x, y, z'

loop_
  _atom_site_type_symbol
  _atom_site_label
  _atom_site_symmetry_multiplicity
  _atom_site_fract_x
  _atom_site_fract_y
  _atom_site_fract_z
  _atom_site_occupancy
  Ca  Ca1       1.0  0.0  0.0  0.0  1.0000
  Br  Br1       1.0  0.3333  0.6667000000000001  0.4435  1.0000
  Br  Br2       1.0  0.6667  0.33329999999999993  0.5565  1.0000
  O   O1        1.0  0.7935000000000001  0.0  0.5  1.0000
  O   O2        1.0  3.309367587523522e-17  0.7935000000000001  0.5  1.0000
  O   O3        1.0  0.2065  0.2065  0.5  1.0000
  O   O4        1.0  0.3021  0.0  0.0  1.0000
  O   O5        1.0  2.1600359913263676e-17  0.30210000000000004  0.0  1.0000
  O   O6        1.0  0.6979  0.6979  0.0  1.0000
  H   H1        1.0  0.7808  0.1131  0.4925000000000001  1.0000
  H   H2        1.0  0.8869  0.6677000000000001  0.4925000000000001  1.0000
  H   H3        1.0  0.3323  0.21919999999999998  0.4925000000000001  1.0000
  H   H4        1.0  0.1131  0.7808  0.5075  1.0000
  H   H5        1.0  0.21919999999999998  0.3323  0.5075  1.0000
  H   H6        1.0  0.6677  0.8869000000000001  0.5075  1.0000
  H   H7        1.0  0.4233  0.1039  0.9209  1.0000
  H   H8        1.0  0.8961  0.3194  0.9209  1.0000
  H   H9        1.0  0.6806000000000001  0.5767  0.9209  1.0000
  H   H10       1.0  0.10390000000000003  0.42330000000000007  0.0791  1.0000
  H   H11       1.0  0.5767  0.6806  0.0791  1.0000
  H   H12       1.0  0.3194  0.8961  0.0791  1.0000
