data_image0
_chemical_formula_structural       Cr6As3K6O30H3
_chemical_formula_sum              "Cr6 As3 K6 O30 H3"
_cell_length_a       7.712
_cell_length_b       7.712
_cell_length_c       14.644
_cell_angle_alpha    90.0
_cell_angle_beta     90.0
_cell_angle_gamma    119.99999999999999

_space_group_name_H-M_alt    "P 1"
_space_group_IT_number       1

loop_
  _space_group_symop_operation_xyz
  'x, y, z'

loop_
  _atom_site_type_symbol
  _atom_site_label
  _atom_site_symmetry_multiplicity
  _atom_site_fract_x
  _atom_site_fract_y
  _atom_site_fract_z
  _atom_site_occupancy
  Cr  Cr1       1.0  0.4278000000000001  0.4243  0.24490000000000006  1.0000
  Cr  Cr2       1.0  0.5757  0.0035000000000000586  0.5782333333333335  1.0000
  Cr  Cr3       1.0  0.9964999999999999  0.5721999999999999  0.9115666666666667  1.0000
  Cr  Cr4       1.0  0.4191  0.4205  0.753  1.0000
  Cr  Cr5       1.0  0.5795  0.9985999999999998  0.08633333333333339  1.0000
  Cr  Cr6       1.0  0.00140000000000004  0.5809  0.4196666666666667  1.0000
  As  As1       1.0  0.1281  0.019899999999999998  0.3493000000000001  1.0000
  As  As2       1.0  0.9801  0.10819999999999999  0.6826333333333334  1.0000
  As  As3       1.0  0.8918  0.8719  0.015966666666666685  1.0000
  K   K1        1.0  0.552  0.0182  0.8389  1.0000
  K   K2        1.0  0.9818  0.5338  0.17223333333333327  1.0000
  K   K3        1.0  0.46619999999999995  0.4479999999999999  0.5055666666666667  1.0000
  K   K4        1.0  0.6083  0.0060999999999999995  0.3323  1.0000
  K   K5        1.0  0.9939  0.6021999999999998  0.6656333333333333  1.0000
  K   K6        1.0  0.39780000000000004  0.39170000000000005  0.9989666666666666  1.0000
  O   O1        1.0  0.3557  0.18569999999999998  0.30210000000000004  1.0000
  O   O2        1.0  0.8143000000000001  0.17000000000000004  0.6354333333333333  1.0000
  O   O3        1.0  0.83  0.6443  0.9687666666666668  1.0000
  O   O4        1.0  0.6253  0.4795999999999999  0.1851  1.0000
  O   O5        1.0  0.5204  0.1457  0.5184333333333333  1.0000
  O   O6        1.0  0.8543000000000001  0.37470000000000003  0.8517666666666666  1.0000
  O   O7        1.0  0.4692000000000001  0.5941  0.3209  1.0000
  O   O8        1.0  0.40590000000000004  0.8751000000000001  0.6542333333333333  1.0000
  O   O9        1.0  0.1248999999999999  0.5307999999999999  0.9875666666666667  1.0000
  O   O10       1.0  0.24530000000000002  0.39039999999999997  0.1759  1.0000
  O   O11       1.0  0.6096  0.8548999999999999  0.5092333333333333  1.0000
  O   O12       1.0  0.1451  0.7547  0.8425666666666667  1.0000
  O   O13       1.0  0.1898  0.3370999999999999  0.6867  1.0000
  O   O14       1.0  0.6629  0.8527  0.02003333333333335  1.0000
  O   O15       1.0  0.1473  0.8102  0.3533666666666666  1.0000
  O   O16       1.0  0.7722  0.16989999999999994  0.1422  1.0000
  O   O17       1.0  0.8301000000000002  0.6023000000000001  0.4755333333333333  1.0000
  O   O18       1.0  0.39769999999999994  0.2278  0.8088666666666667  1.0000
  O   O19       1.0  0.14330000000000004  0.5565  0.4931  1.0000
  O   O20       1.0  0.4435  0.5868  0.8264333333333335  1.0000
  O   O21       1.0  0.41319999999999996  0.8567  0.1597666666666666  1.0000
  O   O22       1.0  0.4945  0.08679999999999997  0.014700000000000001  1.0000
  O   O23       1.0  0.9132000000000001  0.4077  0.34803333333333336  1.0000
  O   O24       1.0  0.5923000000000002  0.5055000000000001  0.6813666666666667  1.0000
  O   O25       1.0  0.0873  0.097  0.4482  1.0000
  O   O26       1.0  0.9030000000000001  0.9903  0.7815333333333333  1.0000
  O   O27       1.0  0.009700000000000009  0.9127  0.11486666666666667  1.0000
  O   O28       1.0  0.015699999999999992  0.9576  0.6142000000000001  1.0000
  O   O29       1.0  0.04239999999999999  0.05809999999999999  0.9475333333333334  1.0000
  O   O30       1.0  0.9419  0.9843  0.2808666666666668  1.0000
  H   H1        1.0  0.0  0.0  0.0  1.0000
  H   H2        1.0  0.0  0.0  0.33333333333333326  1.0000
  H   H3        1.0  0.0  0.0  0.6666666666666666  1.0000
