data_image0
_chemical_formula_structural       Si112O224
_chemical_formula_sum              "Si112 O224"
_cell_length_a       11.5086
_cell_length_b       22.173
_cell_length_c       25.2558
_cell_angle_alpha    90.0
_cell_angle_beta     90.0
_cell_angle_gamma    90.0

_space_group_name_H-M_alt    "P 1"
_space_group_IT_number       1

loop_
  _space_group_symop_operation_xyz
  'x, y, z'

loop_
  _atom_site_type_symbol
  _atom_site_label
  _atom_site_symmetry_multiplicity
  _atom_site_fract_x
  _atom_site_fract_y
  _atom_site_fract_z
  _atom_site_occupancy
  Si  Si1       1.0  0.21633  0.11982  0.15385  1.0000
  Si  Si2       1.0  0.21633  0.88018  0.84615  1.0000
  Si  Si3       1.0  0.78367  0.11982  0.34615  1.0000
  Si  Si4       1.0  0.78367  0.88018  0.6538500000000002  1.0000
  Si  Si5       1.0  0.78367  0.88018  0.84615  1.0000
  Si  Si6       1.0  0.78367  0.11982  0.15385  1.0000
  Si  Si7       1.0  0.21633  0.88018  0.6538500000000002  1.0000
  Si  Si8       1.0  0.21633  0.11982  0.34615  1.0000
  Si  Si9       1.0  0.7163300000000001  0.61982  0.15385  1.0000
  Si  Si10      1.0  0.7163300000000001  0.38018  0.84615  1.0000
  Si  Si11      1.0  0.28367  0.61982  0.34615  1.0000
  Si  Si12      1.0  0.28367  0.38018  0.6538500000000002  1.0000
  Si  Si13      1.0  0.28367  0.38018  0.84615  1.0000
  Si  Si14      1.0  0.28367  0.61982  0.15385  1.0000
  Si  Si15      1.0  0.7163300000000001  0.38018  0.6538500000000002  1.0000
  Si  Si16      1.0  0.7163300000000001  0.61982  0.34615  1.0000
  Si  Si17      1.0  0.24625  0.13282  0.65553  1.0000
  Si  Si18      1.0  0.24625  0.86718  0.3444700000000001  1.0000
  Si  Si19      1.0  0.75375  0.13282  0.8444700000000002  1.0000
  Si  Si20      1.0  0.75375  0.86718  0.15552999999999997  1.0000
  Si  Si21      1.0  0.75375  0.86718  0.3444700000000001  1.0000
  Si  Si22      1.0  0.75375  0.13282  0.65553  1.0000
  Si  Si23      1.0  0.24625  0.86718  0.15552999999999997  1.0000
  Si  Si24      1.0  0.24625  0.13282  0.8444700000000002  1.0000
  Si  Si25      1.0  0.74625  0.6328199999999999  0.65553  1.0000
  Si  Si26      1.0  0.74625  0.36718  0.3444700000000001  1.0000
  Si  Si27      1.0  0.25375000000000003  0.6328199999999999  0.8444700000000002  1.0000
  Si  Si28      1.0  0.25375000000000003  0.36718  0.15552999999999997  1.0000
  Si  Si29      1.0  0.25375000000000003  0.36718  0.3444700000000001  1.0000
  Si  Si30      1.0  0.25375000000000003  0.6328199999999999  0.65553  1.0000
  Si  Si31      1.0  0.74625  0.36718  0.15552999999999997  1.0000
  Si  Si32      1.0  0.74625  0.6328199999999999  0.8444700000000002  1.0000
  Si  Si33      1.0  0.13351  0.24762  0.18893000000000001  1.0000
  Si  Si34      1.0  0.13351  0.7523799999999999  0.8110700000000001  1.0000
  Si  Si35      1.0  0.86649  0.24762  0.31106999999999996  1.0000
  Si  Si36      1.0  0.86649  0.7523799999999999  0.68893  1.0000
  Si  Si37      1.0  0.86649  0.7523799999999999  0.8110700000000001  1.0000
  Si  Si38      1.0  0.86649  0.24762  0.18893000000000001  1.0000
  Si  Si39      1.0  0.13351  0.7523799999999999  0.68893  1.0000
  Si  Si40      1.0  0.13351  0.24762  0.31106999999999996  1.0000
  Si  Si41      1.0  0.63351  0.74762  0.18893000000000001  1.0000
  Si  Si42      1.0  0.63351  0.25238  0.8110700000000001  1.0000
  Si  Si43      1.0  0.36649  0.74762  0.31106999999999996  1.0000
  Si  Si44      1.0  0.36649  0.25238  0.68893  1.0000
  Si  Si45      1.0  0.36649  0.25238  0.8110700000000001  1.0000
  Si  Si46      1.0  0.36649  0.74762  0.18893000000000001  1.0000
  Si  Si47      1.0  0.63351  0.25238  0.68893  1.0000
  Si  Si48      1.0  0.63351  0.74762  0.31106999999999996  1.0000
  Si  Si49      1.0  0.136  0.43127  0.56281  0.7230
  Si  Si50      1.0  0.136  0.56873  0.43719  0.7230
  Si  Si51      1.0  0.864  0.43127  0.93719  0.7230
  Si  Si52      1.0  0.864  0.56873  0.06281000000000003  0.7230
  Si  Si53      1.0  0.864  0.56873  0.43719  0.7230
  Si  Si54      1.0  0.864  0.43127  0.56281  0.7230
  Si  Si55      1.0  0.136  0.56873  0.06281000000000003  0.7230
  Si  Si56      1.0  0.136  0.43127  0.93719  0.7230
  Si  Si57      1.0  0.636  0.93127  0.56281  0.7230
  Si  Si58      1.0  0.636  0.06873000000000001  0.43719  0.7230
  Si  Si59      1.0  0.364  0.93127  0.93719  0.7230
  Si  Si60      1.0  0.364  0.06873000000000001  0.06281000000000003  0.7230
  Si  Si61      1.0  0.364  0.06873000000000001  0.43719  0.7230
  Si  Si62      1.0  0.364  0.93127  0.56281  0.7230
  Si  Si63      1.0  0.636  0.06873000000000001  0.06281000000000003  0.7230
  Si  Si64      1.0  0.636  0.93127  0.93719  0.7230
  Si  Si65      1.0  0.1364  0.4291400000000001  0.06084  0.7360
  Si  Si66      1.0  0.1364  0.5708599999999999  0.93916  0.7360
  Si  Si67      1.0  0.8636  0.4291400000000001  0.43916000000000005  0.7360
  Si  Si68      1.0  0.8636  0.5708599999999999  0.56084  0.7360
  Si  Si69      1.0  0.8636  0.5708599999999999  0.93916  0.7360
  Si  Si70      1.0  0.8636  0.4291400000000001  0.06084  0.7360
  Si  Si71      1.0  0.1364  0.5708599999999999  0.56084  0.7360
  Si  Si72      1.0  0.1364  0.4291400000000001  0.43916000000000005  0.7360
  Si  Si73      1.0  0.6364  0.9291400000000002  0.06084  0.7360
  Si  Si74      1.0  0.6364  0.07085999999999992  0.93916  0.7360
  Si  Si75      1.0  0.36360000000000003  0.9291400000000002  0.43916000000000005  0.7360
  Si  Si76      1.0  0.36360000000000003  0.07085999999999992  0.56084  0.7360
  Si  Si77      1.0  0.36360000000000003  0.07085999999999992  0.93916  0.7360
  Si  Si78      1.0  0.36360000000000003  0.9291400000000002  0.06084  0.7360
  Si  Si79      1.0  0.6364  0.07085999999999992  0.56084  0.7360
  Si  Si80      1.0  0.6364  0.9291400000000002  0.43916000000000005  0.7360
  Si  Si81      1.0  0.13544  0.4212  0.7500000000000001  1.0000
  Si  Si82      1.0  0.13544  0.5788  0.24999999999999992  1.0000
  Si  Si83      1.0  0.86456  0.4212  0.75  1.0000
  Si  Si84      1.0  0.86456  0.5788  0.25  1.0000
  Si  Si85      1.0  0.63544  0.9212000000000001  0.7500000000000001  1.0000
  Si  Si86      1.0  0.63544  0.07879999999999998  0.24999999999999992  1.0000
  Si  Si87      1.0  0.36456  0.9212000000000001  0.75  1.0000
  Si  Si88      1.0  0.36456  0.07879999999999998  0.25  1.0000
  Si  Si89      1.0  0.13557  0.43816  0.25  0.9080
  Si  Si90      1.0  0.13557  0.56184  0.7500000000000001  0.9080
  Si  Si91      1.0  0.86443  0.43816  0.25  0.9080
  Si  Si92      1.0  0.86443  0.56184  0.7500000000000001  0.9080
  Si  Si93      1.0  0.63557  0.9381600000000001  0.25  0.9080
  Si  Si94      1.0  0.63557  0.061840000000000006  0.7500000000000001  0.9080
  Si  Si95      1.0  0.3644300000000001  0.9381600000000001  0.25  0.9080
  Si  Si96      1.0  0.3644300000000001  0.061840000000000006  0.7500000000000001  0.9080
  Si  Si97      1.0  0.0  0.04629  0.18852  0.9030
  Si  Si98      1.0  0.0  0.9537100000000002  0.8114800000000001  0.9030
  Si  Si99      1.0  0.0  0.04629  0.31148  0.9030
  Si  Si100     1.0  0.0  0.9537100000000002  0.68852  0.9030
  Si  Si101     1.0  0.5  0.5462899999999999  0.18852  0.9030
  Si  Si102     1.0  0.5  0.45370999999999995  0.8114800000000001  0.9030
  Si  Si103     1.0  0.5  0.5462899999999999  0.31148  0.9030
  Si  Si104     1.0  0.5  0.45370999999999995  0.68852  0.9030
  Si  Si105     1.0  0.0  0.09311000000000001  0.68856  0.9280
  Si  Si106     1.0  0.0  0.9068899999999999  0.31144000000000005  0.9280
  Si  Si107     1.0  0.0  0.09311000000000001  0.8114400000000002  0.9280
  Si  Si108     1.0  0.0  0.9068899999999999  0.18855999999999984  0.9280
  Si  Si109     1.0  0.5  0.59311  0.68856  0.9280
  Si  Si110     1.0  0.5  0.40689  0.31144000000000005  0.9280
  Si  Si111     1.0  0.5  0.59311  0.8114400000000002  0.9280
  Si  Si112     1.0  0.5  0.40689  0.18855999999999984  0.9280
  O   O1        1.0  0.3147  0.1127  0.1986  1.0000
  O   O2        1.0  0.3147  0.8873  0.8014  1.0000
  O   O3        1.0  0.6853  0.1127  0.30140000000000006  1.0000
  O   O4        1.0  0.6853  0.8873  0.6986000000000001  1.0000
  O   O5        1.0  0.6853  0.8873  0.8014  1.0000
  O   O6        1.0  0.6853  0.1127  0.1986  1.0000
  O   O7        1.0  0.3147  0.8873  0.6986000000000001  1.0000
  O   O8        1.0  0.3147  0.1127  0.30140000000000006  1.0000
  O   O9        1.0  0.8147  0.6127  0.1986  1.0000
  O   O10       1.0  0.8147  0.3873  0.8014  1.0000
  O   O11       1.0  0.18530000000000002  0.6127  0.30140000000000006  1.0000
  O   O12       1.0  0.18530000000000002  0.3873  0.6986000000000001  1.0000
  O   O13       1.0  0.18530000000000002  0.3873  0.8014  1.0000
  O   O14       1.0  0.18530000000000002  0.6127  0.1986  1.0000
  O   O15       1.0  0.8147  0.3873  0.6986000000000001  1.0000
  O   O16       1.0  0.8147  0.6127  0.30140000000000006  1.0000
  O   O17       1.0  0.1147  0.0703  0.1581  1.0000
  O   O18       1.0  0.1147  0.9297  0.8419  1.0000
  O   O19       1.0  0.8853  0.0703  0.3419  1.0000
  O   O20       1.0  0.8853  0.9297  0.6581000000000001  1.0000
  O   O21       1.0  0.8853  0.9297  0.8419  1.0000
  O   O22       1.0  0.8853  0.0703  0.1581  1.0000
  O   O23       1.0  0.1147  0.9297  0.6581000000000001  1.0000
  O   O24       1.0  0.1147  0.0703  0.3419  1.0000
  O   O25       1.0  0.6147  0.5703  0.1581  1.0000
  O   O26       1.0  0.6147  0.42969999999999997  0.8419  1.0000
  O   O27       1.0  0.3853  0.5703  0.3419  1.0000
  O   O28       1.0  0.3853  0.42969999999999997  0.6581000000000001  1.0000
  O   O29       1.0  0.3853  0.42969999999999997  0.8419  1.0000
  O   O30       1.0  0.3853  0.5703  0.1581  1.0000
  O   O31       1.0  0.6147  0.42969999999999997  0.6581000000000001  1.0000
  O   O32       1.0  0.6147  0.5703  0.3419  1.0000
  O   O33       1.0  0.2712  0.1126  0.09560000000000003  1.0000
  O   O34       1.0  0.2712  0.8874000000000001  0.9044000000000001  1.0000
  O   O35       1.0  0.7288000000000001  0.1126  0.40440000000000004  1.0000
  O   O36       1.0  0.7288000000000001  0.8874000000000001  0.5956  1.0000
  O   O37       1.0  0.7288000000000001  0.8874000000000001  0.9044000000000001  1.0000
  O   O38       1.0  0.7288000000000001  0.1126  0.09560000000000003  1.0000
  O   O39       1.0  0.2712  0.8874000000000001  0.5956  1.0000
  O   O40       1.0  0.2712  0.1126  0.40440000000000004  1.0000
  O   O41       1.0  0.7712  0.6126  0.09560000000000003  1.0000
  O   O42       1.0  0.7712  0.38739999999999997  0.9044000000000001  1.0000
  O   O43       1.0  0.22880000000000003  0.6126  0.40440000000000004  1.0000
  O   O44       1.0  0.22880000000000003  0.38739999999999997  0.5956  1.0000
  O   O45       1.0  0.22880000000000003  0.38739999999999997  0.9044000000000001  1.0000
  O   O46       1.0  0.22880000000000003  0.6126  0.09560000000000003  1.0000
  O   O47       1.0  0.7712  0.38739999999999997  0.5956  1.0000
  O   O48       1.0  0.7712  0.6126  0.40440000000000004  1.0000
  O   O49       1.0  0.1582  0.1855  0.1579  1.0000
  O   O50       1.0  0.1582  0.8145  0.8421000000000001  1.0000
  O   O51       1.0  0.8418  0.1855  0.3421  1.0000
  O   O52       1.0  0.8418  0.8145  0.6579  1.0000
  O   O53       1.0  0.8418  0.8145  0.8421000000000001  1.0000
  O   O54       1.0  0.8418  0.1855  0.1579  1.0000
  O   O55       1.0  0.1582  0.8145  0.6579  1.0000
  O   O56       1.0  0.1582  0.1855  0.3421  1.0000
  O   O57       1.0  0.6582  0.6855  0.1579  1.0000
  O   O58       1.0  0.6582  0.3145  0.8421000000000001  1.0000
  O   O59       1.0  0.3418  0.6855  0.3421  1.0000
  O   O60       1.0  0.3418  0.3145  0.6579  1.0000
  O   O61       1.0  0.3418  0.3145  0.8421000000000001  1.0000
  O   O62       1.0  0.3418  0.6855  0.1579  1.0000
  O   O63       1.0  0.6582  0.3145  0.6579  1.0000
  O   O64       1.0  0.6582  0.6855  0.3421  1.0000
  O   O65       1.0  0.2782  0.1169  0.5950800000000002  1.0000
  O   O66       1.0  0.2782  0.8831000000000001  0.4049199999999999  1.0000
  O   O67       1.0  0.7218  0.1169  0.9049199999999998  1.0000
  O   O68       1.0  0.7218  0.8831000000000001  0.09508000000000029  1.0000
  O   O69       1.0  0.7218  0.8831000000000001  0.4049199999999999  1.0000
  O   O70       1.0  0.7218  0.1169  0.5950800000000002  1.0000
  O   O71       1.0  0.2782  0.8831000000000001  0.09508000000000029  1.0000
  O   O72       1.0  0.2782  0.1169  0.9049199999999998  1.0000
  O   O73       1.0  0.7781999999999999  0.6169  0.5950800000000002  1.0000
  O   O74       1.0  0.7781999999999999  0.3831  0.4049199999999999  1.0000
  O   O75       1.0  0.2218  0.6169  0.9049199999999998  1.0000
  O   O76       1.0  0.2218  0.3831  0.09508000000000029  1.0000
  O   O77       1.0  0.2218  0.3831  0.4049199999999999  1.0000
  O   O78       1.0  0.2218  0.6169  0.5950800000000002  1.0000
  O   O79       1.0  0.7781999999999999  0.3831  0.09508000000000029  1.0000
  O   O80       1.0  0.7781999999999999  0.6169  0.9049199999999998  1.0000
  O   O81       1.0  0.3106  0.0874  0.6952  1.0000
  O   O82       1.0  0.3106  0.9126  0.3048  1.0000
  O   O83       1.0  0.6894  0.0874  0.8048000000000001  1.0000
  O   O84       1.0  0.6894  0.9126  0.19520000000000004  1.0000
  O   O85       1.0  0.6894  0.9126  0.3048  1.0000
  O   O86       1.0  0.6894  0.0874  0.6952  1.0000
  O   O87       1.0  0.3106  0.9126  0.19520000000000004  1.0000
  O   O88       1.0  0.3106  0.0874  0.8048000000000001  1.0000
  O   O89       1.0  0.8106000000000001  0.5874  0.6952  1.0000
  O   O90       1.0  0.8106000000000001  0.41259999999999997  0.3048  1.0000
  O   O91       1.0  0.1894  0.5874  0.8048000000000001  1.0000
  O   O92       1.0  0.1894  0.41259999999999997  0.19520000000000004  1.0000
  O   O93       1.0  0.1894  0.41259999999999997  0.3048  1.0000
  O   O94       1.0  0.1894  0.5874  0.6952  1.0000
  O   O95       1.0  0.8106000000000001  0.41259999999999997  0.19520000000000004  1.0000
  O   O96       1.0  0.8106000000000001  0.5874  0.8048000000000001  1.0000
  O   O97       1.0  0.10730000000000002  0.1257  0.659  1.0000
  O   O98       1.0  0.10730000000000002  0.8743  0.34099999999999997  1.0000
  O   O99       1.0  0.8927  0.1257  0.841  1.0000
  O   O100      1.0  0.8927  0.8743  0.15900000000000003  1.0000
  O   O101      1.0  0.8927  0.8743  0.34099999999999997  1.0000
  O   O102      1.0  0.8927  0.1257  0.659  1.0000
  O   O103      1.0  0.10730000000000002  0.8743  0.15900000000000003  1.0000
  O   O104      1.0  0.10730000000000002  0.1257  0.841  1.0000
  O   O105      1.0  0.6073000000000001  0.6257  0.659  1.0000
  O   O106      1.0  0.6073000000000001  0.37429999999999997  0.34099999999999997  1.0000
  O   O107      1.0  0.3927  0.6257  0.841  1.0000
  O   O108      1.0  0.3927  0.37429999999999997  0.15900000000000003  1.0000
  O   O109      1.0  0.3927  0.37429999999999997  0.34099999999999997  1.0000
  O   O110      1.0  0.3927  0.6257  0.659  1.0000
  O   O111      1.0  0.6073000000000001  0.37429999999999997  0.15900000000000003  1.0000
  O   O112      1.0  0.6073000000000001  0.6257  0.841  1.0000
  O   O113      1.0  0.2785  0.20225999999999997  0.6663  1.0000
  O   O114      1.0  0.2785  0.79774  0.3337  1.0000
  O   O115      1.0  0.7215  0.20225999999999997  0.8337000000000001  1.0000
  O   O116      1.0  0.7215  0.79774  0.16630000000000014  1.0000
  O   O117      1.0  0.7215  0.79774  0.3337  1.0000
  O   O118      1.0  0.7215  0.20225999999999997  0.6663  1.0000
  O   O119      1.0  0.2785  0.79774  0.16630000000000014  1.0000
  O   O120      1.0  0.2785  0.20225999999999997  0.8337000000000001  1.0000
  O   O121      1.0  0.7785000000000001  0.70226  0.6663  1.0000
  O   O122      1.0  0.7785000000000001  0.29774  0.3337  1.0000
  O   O123      1.0  0.22149999999999997  0.70226  0.8337000000000001  1.0000
  O   O124      1.0  0.22149999999999997  0.29774  0.16630000000000014  1.0000
  O   O125      1.0  0.22149999999999997  0.29774  0.3337  1.0000
  O   O126      1.0  0.22149999999999997  0.70226  0.6663  1.0000
  O   O127      1.0  0.7785000000000001  0.29774  0.16630000000000014  1.0000
  O   O128      1.0  0.7785000000000001  0.70226  0.8337000000000001  1.0000
  O   O129      1.0  0.168  0.237  0.25  1.0000
  O   O130      1.0  0.168  0.763  0.7500000000000001  1.0000
  O   O131      1.0  0.832  0.237  0.25  1.0000
  O   O132      1.0  0.832  0.763  0.7500000000000001  1.0000
  O   O133      1.0  0.668  0.737  0.25  1.0000
  O   O134      1.0  0.668  0.263  0.7500000000000001  1.0000
  O   O135      1.0  0.33199999999999996  0.737  0.25  1.0000
  O   O136      1.0  0.33199999999999996  0.263  0.7500000000000001  1.0000
  O   O137      1.0  0.0  0.2676  0.1804  1.0000
  O   O138      1.0  0.0  0.7323999999999999  0.8196000000000001  1.0000
  O   O139      1.0  0.0  0.2676  0.31960000000000005  1.0000
  O   O140      1.0  0.0  0.7323999999999999  0.6804  1.0000
  O   O141      1.0  0.5  0.7676000000000001  0.1804  1.0000
  O   O142      1.0  0.5  0.23239999999999997  0.8196000000000001  1.0000
  O   O143      1.0  0.5  0.7676000000000001  0.31960000000000005  1.0000
  O   O144      1.0  0.5  0.23239999999999997  0.6804  1.0000
  O   O145      1.0  0.0  0.4132  0.5767  1.0000
  O   O146      1.0  0.0  0.5868  0.42330000000000007  1.0000
  O   O147      1.0  0.0  0.4132  0.9233000000000001  1.0000
  O   O148      1.0  0.0  0.5868  0.0767  1.0000
  O   O149      1.0  0.5  0.9132000000000001  0.5767  1.0000
  O   O150      1.0  0.5  0.08679999999999999  0.42330000000000007  1.0000
  O   O151      1.0  0.5  0.9132000000000001  0.9233000000000001  1.0000
  O   O152      1.0  0.5  0.08679999999999999  0.0767  1.0000
  O   O153      1.0  0.1672  0.50145  0.579  1.0000
  O   O154      1.0  0.1672  0.49855000000000005  0.4210000000000001  1.0000
  O   O155      1.0  0.8328000000000001  0.50145  0.921  1.0000
  O   O156      1.0  0.8328000000000001  0.49855000000000005  0.07899999999999997  1.0000
  O   O157      1.0  0.8328000000000001  0.49855000000000005  0.4210000000000001  1.0000
  O   O158      1.0  0.8328000000000001  0.50145  0.579  1.0000
  O   O159      1.0  0.1672  0.49855000000000005  0.07899999999999997  1.0000
  O   O160      1.0  0.1672  0.50145  0.921  1.0000
  O   O161      1.0  0.6672  0.0014499999999999513  0.579  1.0000
  O   O162      1.0  0.6672  0.9985500000000002  0.4210000000000001  1.0000
  O   O163      1.0  0.3328  0.0014499999999999513  0.921  1.0000
  O   O164      1.0  0.3328  0.9985500000000002  0.07899999999999997  1.0000
  O   O165      1.0  0.3328  0.9985500000000002  0.4210000000000001  1.0000
  O   O166      1.0  0.3328  0.0014499999999999513  0.579  1.0000
  O   O167      1.0  0.6672  0.9985500000000002  0.07899999999999997  1.0000
  O   O168      1.0  0.6672  0.0014499999999999513  0.921  1.0000
  O   O169      1.0  0.1774  0.4165  0.5011000000000001  1.0000
  O   O170      1.0  0.1774  0.5835  0.49889999999999995  1.0000
  O   O171      1.0  0.8226000000000001  0.4165  0.9988999999999999  1.0000
  O   O172      1.0  0.8226000000000001  0.5835  0.001100000000000101  1.0000
  O   O173      1.0  0.8226000000000001  0.5835  0.49889999999999995  1.0000
  O   O174      1.0  0.8226000000000001  0.4165  0.5011000000000001  1.0000
  O   O175      1.0  0.1774  0.5835  0.001100000000000101  1.0000
  O   O176      1.0  0.1774  0.4165  0.9988999999999999  1.0000
  O   O177      1.0  0.6774  0.9165  0.5011000000000001  1.0000
  O   O178      1.0  0.6774  0.08350000000000002  0.49889999999999995  1.0000
  O   O179      1.0  0.3226  0.9165  0.9988999999999999  1.0000
  O   O180      1.0  0.3226  0.08350000000000002  0.001100000000000101  1.0000
  O   O181      1.0  0.3226  0.08350000000000002  0.49889999999999995  1.0000
  O   O182      1.0  0.3226  0.9165  0.5011000000000001  1.0000
  O   O183      1.0  0.6774  0.08350000000000002  0.001100000000000101  1.0000
  O   O184      1.0  0.6774  0.9165  0.9988999999999999  1.0000
  O   O185      1.0  0.0  0.4094  0.0729  1.0000
  O   O186      1.0  0.0  0.5906  0.9271  1.0000
  O   O187      1.0  0.0  0.4094  0.42710000000000004  1.0000
  O   O188      1.0  0.0  0.5906  0.5729000000000001  1.0000
  O   O189      1.0  0.5  0.9094  0.0729  1.0000
  O   O190      1.0  0.5  0.0906  0.9271  1.0000
  O   O191      1.0  0.5  0.9094  0.42710000000000004  1.0000
  O   O192      1.0  0.5  0.0906  0.5729000000000001  1.0000
  O   O193      1.0  0.0  0.40460000000000007  0.7500000000000001  1.0000
  O   O194      1.0  0.0  0.5953999999999999  0.24999999999999992  1.0000
  O   O195      1.0  0.5  0.9046000000000001  0.7500000000000001  1.0000
  O   O196      1.0  0.5  0.09539999999999993  0.24999999999999992  1.0000
  O   O197      1.0  0.17  0.49131  0.7500000000000001  1.0000
  O   O198      1.0  0.17  0.50869  0.24999999999999992  1.0000
  O   O199      1.0  0.83  0.49131  0.75  1.0000
  O   O200      1.0  0.83  0.50869  0.25  1.0000
  O   O201      1.0  0.67  0.9913099999999999  0.7500000000000001  1.0000
  O   O202      1.0  0.67  0.008689999999999976  0.24999999999999992  1.0000
  O   O203      1.0  0.32999999999999996  0.9913099999999999  0.75  1.0000
  O   O204      1.0  0.32999999999999996  0.008689999999999976  0.25  1.0000
  O   O205      1.0  0.0  0.41939999999999994  0.25  1.0000
  O   O206      1.0  0.0  0.5806  0.7500000000000001  1.0000
  O   O207      1.0  0.5  0.9194  0.25  1.0000
  O   O208      1.0  0.5  0.08060000000000006  0.7500000000000001  1.0000
  O   O209      1.0  0.0  0.9766299999999999  0.1742  1.0000
  O   O210      1.0  0.0  0.023370000000000113  0.8258  1.0000
  O   O211      1.0  0.0  0.9766299999999999  0.3258  1.0000
  O   O212      1.0  0.0  0.023370000000000113  0.6742000000000001  1.0000
  O   O213      1.0  0.5  0.47662999999999983  0.1742  1.0000
  O   O214      1.0  0.5  0.5233700000000001  0.8258  1.0000
  O   O215      1.0  0.5  0.47662999999999983  0.3258  1.0000
  O   O216      1.0  0.5  0.5233700000000001  0.6742000000000001  1.0000
  O   O217      1.0  0.0  0.0655  0.25  1.0000
  O   O218      1.0  0.0  0.9345  0.7500000000000001  1.0000
  O   O219      1.0  0.5  0.5655  0.25  1.0000
  O   O220      1.0  0.5  0.4345  0.7500000000000001  1.0000
  O   O221      1.0  0.0  0.11069999999999999  0.7500000000000001  1.0000
  O   O222      1.0  0.0  0.8893  0.24999999999999992  1.0000
  O   O223      1.0  0.5  0.6107  0.7500000000000001  1.0000
  O   O224      1.0  0.5  0.3893  0.24999999999999992  1.0000
  Ge  Ge1       1.0  0.136  0.43127  0.56281  0.2770
  Ge  Ge2       1.0  0.136  0.56873  0.43719  0.2770
  Ge  Ge3       1.0  0.864  0.43127  0.93719  0.2770
  Ge  Ge4       1.0  0.864  0.56873  0.06281000000000003  0.2770
  Ge  Ge5       1.0  0.864  0.56873  0.43719  0.2770
  Ge  Ge6       1.0  0.864  0.43127  0.56281  0.2770
  Ge  Ge7       1.0  0.136  0.56873  0.06281000000000003  0.2770
  Ge  Ge8       1.0  0.136  0.43127  0.93719  0.2770
  Ge  Ge9       1.0  0.636  0.93127  0.56281  0.2770
  Ge  Ge10      1.0  0.636  0.06873000000000001  0.43719  0.2770
  Ge  Ge11      1.0  0.364  0.93127  0.93719  0.2770
  Ge  Ge12      1.0  0.364  0.06873000000000001  0.06281000000000003  0.2770
  Ge  Ge13      1.0  0.364  0.06873000000000001  0.43719  0.2770
  Ge  Ge14      1.0  0.364  0.93127  0.56281  0.2770
  Ge  Ge15      1.0  0.636  0.06873000000000001  0.06281000000000003  0.2770
  Ge  Ge16      1.0  0.636  0.93127  0.93719  0.2770
  Ge  Ge17      1.0  0.1364  0.4291400000000001  0.06084  0.2640
  Ge  Ge18      1.0  0.1364  0.5708599999999999  0.93916  0.2640
  Ge  Ge19      1.0  0.8636  0.4291400000000001  0.43916000000000005  0.2640
  Ge  Ge20      1.0  0.8636  0.5708599999999999  0.56084  0.2640
  Ge  Ge21      1.0  0.8636  0.5708599999999999  0.93916  0.2640
  Ge  Ge22      1.0  0.8636  0.4291400000000001  0.06084  0.2640
  Ge  Ge23      1.0  0.1364  0.5708599999999999  0.56084  0.2640
  Ge  Ge24      1.0  0.1364  0.4291400000000001  0.43916000000000005  0.2640
  Ge  Ge25      1.0  0.6364  0.9291400000000002  0.06084  0.2640
  Ge  Ge26      1.0  0.6364  0.07085999999999992  0.93916  0.2640
  Ge  Ge27      1.0  0.36360000000000003  0.9291400000000002  0.43916000000000005  0.2640
  Ge  Ge28      1.0  0.36360000000000003  0.07085999999999992  0.56084  0.2640
  Ge  Ge29      1.0  0.36360000000000003  0.07085999999999992  0.93916  0.2640
  Ge  Ge30      1.0  0.36360000000000003  0.9291400000000002  0.06084  0.2640
  Ge  Ge31      1.0  0.6364  0.07085999999999992  0.56084  0.2640
  Ge  Ge32      1.0  0.6364  0.9291400000000002  0.43916000000000005  0.2640
  Ge  Ge33      1.0  0.13557  0.43816  0.25  0.0920
  Ge  Ge34      1.0  0.13557  0.56184  0.7500000000000001  0.0920
  Ge  Ge35      1.0  0.86443  0.43816  0.25  0.0920
  Ge  Ge36      1.0  0.86443  0.56184  0.7500000000000001  0.0920
  Ge  Ge37      1.0  0.63557  0.9381600000000001  0.25  0.0920
  Ge  Ge38      1.0  0.63557  0.061840000000000006  0.7500000000000001  0.0920
  Ge  Ge39      1.0  0.3644300000000001  0.9381600000000001  0.25  0.0920
  Ge  Ge40      1.0  0.3644300000000001  0.061840000000000006  0.7500000000000001  0.0920
  Ge  Ge41      1.0  0.0  0.04629  0.18852  0.0970
  Ge  Ge42      1.0  0.0  0.9537100000000002  0.8114800000000001  0.0970
  Ge  Ge43      1.0  0.0  0.04629  0.31148  0.0970
  Ge  Ge44      1.0  0.0  0.9537100000000002  0.68852  0.0970
  Ge  Ge45      1.0  0.5  0.5462899999999999  0.18852  0.0970
  Ge  Ge46      1.0  0.5  0.45370999999999995  0.8114800000000001  0.0970
  Ge  Ge47      1.0  0.5  0.5462899999999999  0.31148  0.0970
  Ge  Ge48      1.0  0.5  0.45370999999999995  0.68852  0.0970
  Ge  Ge49      1.0  0.0  0.09311000000000001  0.68856  0.0720
  Ge  Ge50      1.0  0.0  0.9068899999999999  0.31144000000000005  0.0720
  Ge  Ge51      1.0  0.0  0.09311000000000001  0.8114400000000002  0.0720
  Ge  Ge52      1.0  0.0  0.9068899999999999  0.18855999999999984  0.0720
  Ge  Ge53      1.0  0.5  0.59311  0.68856  0.0720
  Ge  Ge54      1.0  0.5  0.40689  0.31144000000000005  0.0720
  Ge  Ge55      1.0  0.5  0.59311  0.8114400000000002  0.0720
  Ge  Ge56      1.0  0.5  0.40689  0.18855999999999984  0.0720
