data_image0
_chemical_formula_structural       Zr4W8O32
_chemical_formula_sum              "Zr4 W8 O32"
_cell_length_a       9.1546
_cell_length_b       9.1546
_cell_length_c       9.1546
_cell_angle_alpha    90.0
_cell_angle_beta     90.0
_cell_angle_gamma    90.0

_space_group_name_H-M_alt    "P 1"
_space_group_IT_number       1

loop_
  _space_group_symop_operation_xyz
  'x, y, z'

loop_
  _atom_site_type_symbol
  _atom_site_label
  _atom_site_symmetry_multiplicity
  _atom_site_fract_x
  _atom_site_fract_y
  _atom_site_fract_z
  _atom_site_occupancy
  Zr  Zr1       1.0  0.7515  0.7515  0.7515  1.0000
  Zr  Zr2       1.0  0.25150000000000006  0.7485  0.24850000000000005  1.0000
  Zr  Zr3       1.0  0.24850000000000005  0.25150000000000006  0.7485  1.0000
  Zr  Zr4       1.0  0.7485  0.24850000000000005  0.25150000000000006  1.0000
  W   W1        1.0  0.3509  0.3509  0.3509  1.0000
  W   W2        1.0  0.8508999999999999  0.1491  0.6491  1.0000
  W   W3        1.0  0.6491  0.8508999999999999  0.1491  1.0000
  W   W4        1.0  0.1491  0.6491  0.8508999999999999  1.0000
  W   W5        1.0  0.0913  0.0913  0.0913  1.0000
  W   W6        1.0  0.5913  0.4087  0.9087  1.0000
  W   W7        1.0  0.9087  0.5913  0.4087  1.0000
  W   W8        1.0  0.4087  0.9087  0.5913  1.0000
  O   O1        1.0  0.2414  0.2414  0.2414  1.0000
  O   O2        1.0  0.7414  0.25859999999999994  0.7585999999999999  1.0000
  O   O3        1.0  0.7585999999999999  0.7414  0.25859999999999994  1.0000
  O   O4        1.0  0.25859999999999994  0.7585999999999999  0.7414  1.0000
  O   O5        1.0  0.9832999999999998  0.9832999999999998  0.9832999999999998  1.0000
  O   O6        1.0  0.48329999999999984  0.5167  0.01670000000000016  1.0000
  O   O7        1.0  0.01670000000000016  0.48329999999999984  0.5167  1.0000
  O   O8        1.0  0.5167  0.01670000000000016  0.48329999999999984  1.0000
  O   O9        1.0  0.3058  0.32  0.5381  1.0000
  O   O10       1.0  0.32  0.5381  0.3058  1.0000
  O   O11       1.0  0.5381  0.3058  0.32  1.0000
  O   O12       1.0  0.8058  0.18  0.4618999999999999  1.0000
  O   O13       1.0  0.82  0.9619  0.6941999999999999  1.0000
  O   O14       1.0  0.03810000000000002  0.19419999999999998  0.6799999999999999  1.0000
  O   O15       1.0  0.6941999999999999  0.82  0.9619  1.0000
  O   O16       1.0  0.6799999999999999  0.03810000000000002  0.19419999999999998  1.0000
  O   O17       1.0  0.4618999999999999  0.8058  0.18  1.0000
  O   O18       1.0  0.19419999999999998  0.6799999999999999  0.03810000000000002  1.0000
  O   O19       1.0  0.18  0.4618999999999999  0.8058  1.0000
  O   O20       1.0  0.9619  0.6941999999999999  0.82  1.0000
  O   O21       1.0  0.1974  0.1883  0.9572999999999999  1.0000
  O   O22       1.0  0.1883  0.9572999999999999  0.1974  1.0000
  O   O23       1.0  0.9572999999999999  0.1974  0.1883  1.0000
  O   O24       1.0  0.6974  0.3117  0.04270000000000007  1.0000
  O   O25       1.0  0.6883  0.5427000000000001  0.8025999999999999  1.0000
  O   O26       1.0  0.45730000000000004  0.3026  0.8117  1.0000
  O   O27       1.0  0.8025999999999999  0.6883  0.5427000000000001  1.0000
  O   O28       1.0  0.8117  0.45730000000000004  0.3026  1.0000
  O   O29       1.0  0.04270000000000007  0.6974  0.3117  1.0000
  O   O30       1.0  0.3026  0.8117  0.45730000000000004  1.0000
  O   O31       1.0  0.3117  0.04270000000000007  0.6974  1.0000
  O   O32       1.0  0.5427000000000001  0.8025999999999999  0.6883  1.0000
