data_image0
_chemical_formula_structural       K8In4S28P8
_chemical_formula_sum              "K8 In4 S28 P8"
_cell_length_a       14.114
_cell_length_b       10.607
_cell_length_c       8.581999999999999
_cell_angle_alpha    90.0
_cell_angle_beta     109.01
_cell_angle_gamma    90.0

_space_group_name_H-M_alt    "P 1"
_space_group_IT_number       1

loop_
  _space_group_symop_operation_xyz
  'x, y, z'

loop_
  _atom_site_type_symbol
  _atom_site_label
  _atom_site_symmetry_multiplicity
  _atom_site_fract_x
  _atom_site_fract_y
  _atom_site_fract_z
  _atom_site_occupancy
  K   K1        1.0  0.1696  0.2186  0.159  1.0000
  K   K2        1.0  0.8304  0.2186  0.841  1.0000
  K   K3        1.0  0.6696  0.7186  0.159  1.0000
  K   K4        1.0  0.3304  0.7186  0.841  1.0000
  K   K5        1.0  0.8304  0.7813999999999999  0.841  1.0000
  K   K6        1.0  0.1696  0.7813999999999999  0.159  1.0000
  K   K7        1.0  0.3304  0.2814  0.841  1.0000
  K   K8        1.0  0.6696  0.2814  0.159  1.0000
  In  In1       1.0  0.0  0.3112  0.5  1.0000
  In  In2       1.0  0.5  0.8111999999999999  0.5  1.0000
  In  In3       1.0  0.0  0.6888000000000001  0.5  1.0000
  In  In4       1.0  0.5  0.18880000000000002  0.5  1.0000
  S   S1        1.0  0.1453  0.1572  0.5364  1.0000
  S   S2        1.0  0.8547  0.1572  0.4636  1.0000
  S   S3        1.0  0.6453  0.6572  0.5364  1.0000
  S   S4        1.0  0.3547  0.6572  0.4636  1.0000
  S   S5        1.0  0.8547  0.8428000000000001  0.4636  1.0000
  S   S6        1.0  0.1453  0.8428000000000001  0.5364  1.0000
  S   S7        1.0  0.3547  0.3428  0.4636  1.0000
  S   S8        1.0  0.6453  0.3428  0.5364  1.0000
  S   S9        1.0  0.005400000000000003  0.0  0.1978  1.0000
  S   S10       1.0  0.9946  0.0  0.8022  1.0000
  S   S11       1.0  0.5054  0.5  0.1978  1.0000
  S   S12       1.0  0.49459999999999993  0.5  0.8022  1.0000
  S   S13       1.0  0.9704  0.3395  0.1938  1.0000
  S   S14       1.0  0.02959999999999999  0.3395  0.8062  1.0000
  S   S15       1.0  0.47040000000000004  0.8395  0.1938  1.0000
  S   S16       1.0  0.5296  0.8395  0.8062  1.0000
  S   S17       1.0  0.02959999999999999  0.6605  0.8062  1.0000
  S   S18       1.0  0.9704  0.6605  0.1938  1.0000
  S   S19       1.0  0.5296  0.16049999999999998  0.8062  1.0000
  S   S20       1.0  0.47040000000000004  0.16049999999999998  0.1938  1.0000
  S   S21       1.0  0.1412  0.5  0.5936  1.0000
  S   S22       1.0  0.8588  0.5  0.4064  1.0000
  S   S23       1.0  0.6412  0.0  0.5936  1.0000
  S   S24       1.0  0.35880000000000006  0.0  0.4064  1.0000
  S   S25       1.0  0.23270000000000005  0.5  0.015300000000000091  1.0000
  S   S26       1.0  0.7673  0.5  0.9846999999999999  1.0000
  S   S27       1.0  0.7327  0.0  0.015300000000000091  1.0000
  S   S28       1.0  0.2673  0.0  0.9846999999999999  1.0000
  P   P1        1.0  0.061  0.0  0.4419  1.0000
  P   P2        1.0  0.9390000000000001  0.0  0.5581  1.0000
  P   P3        1.0  0.5609999999999999  0.5  0.4419  1.0000
  P   P4        1.0  0.439  0.5  0.5581  1.0000
  P   P5        1.0  0.11090000000000001  0.5  0.8167  1.0000
  P   P6        1.0  0.8890999999999999  0.5  0.18330000000000002  1.0000
  P   P7        1.0  0.6109  0.0  0.8167  1.0000
  P   P8        1.0  0.3891  0.0  0.18330000000000002  1.0000
