data_image0
_chemical_formula_structural       C8N8Zn2Pd2
_chemical_formula_sum              "C8 N8 Zn2 Pd2"
_cell_length_a       5.3718
_cell_length_b       5.3718
_cell_length_c       13.4271
_cell_angle_alpha    90.0
_cell_angle_beta     90.0
_cell_angle_gamma    90.0

_space_group_name_H-M_alt    "P 1"
_space_group_IT_number       1

loop_
  _space_group_symop_operation_xyz
  'x, y, z'

loop_
  _atom_site_type_symbol
  _atom_site_label
  _atom_site_symmetry_multiplicity
  _atom_site_fract_x
  _atom_site_fract_y
  _atom_site_fract_z
  _atom_site_occupancy
  C   C1        1.0  0.8031  0.1969  0.6009000000000002  1.0000
  C   C2        1.0  0.19689999999999996  0.8031  0.6009000000000002  1.0000
  C   C3        1.0  0.8031  0.8031  0.10090000000000021  1.0000
  C   C4        1.0  0.1969  0.19689999999999996  0.10090000000000021  1.0000
  C   C5        1.0  0.19689999999999996  0.1969  0.8990999999999999  1.0000
  C   C6        1.0  0.8031  0.8031  0.8990999999999999  1.0000
  C   C7        1.0  0.1969  0.8031  0.3990999999999999  1.0000
  C   C8        1.0  0.8031  0.19689999999999996  0.3990999999999999  1.0000
  N   N1        1.0  0.7013  0.2987  0.6499000000000001  1.0000
  N   N2        1.0  0.29869999999999997  0.7013  0.6499000000000001  1.0000
  N   N3        1.0  0.7013  0.7013  0.14990000000000014  1.0000
  N   N4        1.0  0.2987  0.29869999999999997  0.14990000000000014  1.0000
  N   N5        1.0  0.29869999999999997  0.2987  0.8501  1.0000
  N   N6        1.0  0.7013  0.7013  0.8501  1.0000
  N   N7        1.0  0.2987  0.7013  0.35009999999999986  1.0000
  N   N8        1.0  0.7013  0.29869999999999997  0.35009999999999986  1.0000
  Zn  Zn1       1.0  0.5  0.5  0.7500000000000001  1.0000
  Zn  Zn2       1.0  0.5  0.5  0.25  1.0000
  Pd  Pd1       1.0  0.0  0.0  0.5  1.0000
  Pd  Pd2       1.0  0.0  0.0  0.0  1.0000
