data_image0
_chemical_formula_structural       Mo24S24O144
_chemical_formula_sum              "Mo24 S24 O144"
_cell_length_a       8.5922
_cell_length_b       12.2951
_cell_length_c       25.670999999999996
_cell_angle_alpha    90.0
_cell_angle_beta     94.56700000000001
_cell_angle_gamma    90.0

_space_group_name_H-M_alt    "P 1"
_space_group_IT_number       1

loop_
  _space_group_symop_operation_xyz
  'x, y, z'

loop_
  _atom_site_type_symbol
  _atom_site_label
  _atom_site_symmetry_multiplicity
  _atom_site_fract_x
  _atom_site_fract_y
  _atom_site_fract_z
  _atom_site_occupancy
  Mo  Mo1       1.0  0.9826599999999999  0.11727700000000008  0.24233800000000005  1.0000
  Mo  Mo2       1.0  0.51734  0.11727700000000008  0.757662  1.0000
  Mo  Mo3       1.0  0.48266000000000003  0.6172770000000001  0.742338  1.0000
  Mo  Mo4       1.0  0.01734  0.6172770000000001  0.257662  1.0000
  Mo  Mo5       1.0  0.01733999999999998  0.8827229999999999  0.757662  1.0000
  Mo  Mo6       1.0  0.48266000000000003  0.8827229999999999  0.24233800000000005  1.0000
  Mo  Mo7       1.0  0.51734  0.382723  0.257662  1.0000
  Mo  Mo8       1.0  0.9826599999999999  0.382723  0.742338  1.0000
  Mo  Mo9       1.0  0.030190000000000015  0.878331  0.4214800000000001  1.0000
  Mo  Mo10      1.0  0.46980999999999995  0.878331  0.5785199999999999  1.0000
  Mo  Mo11      1.0  0.53019  0.378331  0.9214800000000002  1.0000
  Mo  Mo12      1.0  0.9698099999999998  0.378331  0.07851999999999994  1.0000
  Mo  Mo13      1.0  0.9698099999999998  0.12166900000000004  0.5785199999999999  1.0000
  Mo  Mo14      1.0  0.53019  0.12166900000000004  0.4214800000000001  1.0000
  Mo  Mo15      1.0  0.46980999999999995  0.621669  0.07851999999999994  1.0000
  Mo  Mo16      1.0  0.03019000000000003  0.621669  0.9214800000000002  1.0000
  Mo  Mo17      1.0  0.012200000000000003  0.374092  0.415811  1.0000
  Mo  Mo18      1.0  0.4878  0.374092  0.5841890000000001  1.0000
  Mo  Mo19      1.0  0.5122  0.874092  0.9158109999999999  1.0000
  Mo  Mo20      1.0  0.9878000000000001  0.874092  0.08418900000000001  1.0000
  Mo  Mo21      1.0  0.9878000000000001  0.625908  0.5841890000000001  1.0000
  Mo  Mo22      1.0  0.5122  0.625908  0.415811  1.0000
  Mo  Mo23      1.0  0.4878  0.12590800000000002  0.08418900000000001  1.0000
  Mo  Mo24      1.0  0.012200000000000003  0.12590800000000002  0.9158109999999999  1.0000
  S   S1        1.0  0.60486  0.12850000000000006  0.2864  1.0000
  S   S2        1.0  0.89514  0.12850000000000006  0.7136  1.0000
  S   S3        1.0  0.10486000000000001  0.6285000000000001  0.7864  1.0000
  S   S4        1.0  0.39514  0.6285000000000001  0.21360000000000004  1.0000
  S   S5        1.0  0.39514  0.8715  0.7136  1.0000
  S   S6        1.0  0.10486000000000001  0.8715  0.2864  1.0000
  S   S7        1.0  0.89514  0.37149999999999994  0.21360000000000004  1.0000
  S   S8        1.0  0.60486  0.37149999999999994  0.7864  1.0000
  S   S9        1.0  0.12002  0.12721000000000005  0.37813  1.0000
  S   S10       1.0  0.37998  0.12721000000000005  0.6218699999999999  1.0000
  S   S11       1.0  0.62002  0.62721  0.8781300000000002  1.0000
  S   S12       1.0  0.87998  0.62721  0.12186999999999998  1.0000
  S   S13       1.0  0.8799799999999999  0.87279  0.6218699999999999  1.0000
  S   S14       1.0  0.62002  0.87279  0.37813  1.0000
  S   S15       1.0  0.37998  0.37278999999999995  0.12186999999999998  1.0000
  S   S16       1.0  0.12002000000000003  0.37278999999999995  0.8781300000000002  1.0000
  S   S17       1.0  0.9188  0.62559  0.44454  1.0000
  S   S18       1.0  0.5812000000000002  0.62559  0.5554600000000002  1.0000
  S   S19       1.0  0.41880000000000006  0.12558999999999987  0.94454  1.0000
  S   S20       1.0  0.0812  0.12558999999999987  0.05546000000000001  1.0000
  S   S21       1.0  0.08120000000000004  0.3744100000000001  0.5554600000000002  1.0000
  S   S22       1.0  0.4188  0.3744100000000001  0.44454  1.0000
  S   S23       1.0  0.5812  0.87441  0.05546000000000001  1.0000
  S   S24       1.0  0.9188  0.87441  0.94454  1.0000
  O   O1        1.0  0.1624  0.13241999999999998  0.22279  1.0000
  O   O2        1.0  0.33760000000000007  0.13241999999999998  0.7772100000000001  1.0000
  O   O3        1.0  0.6624  0.63242  0.72279  1.0000
  O   O4        1.0  0.8376  0.63242  0.27721  1.0000
  O   O5        1.0  0.8376  0.8675800000000001  0.7772100000000001  1.0000
  O   O6        1.0  0.6624  0.8675800000000001  0.22279  1.0000
  O   O7        1.0  0.33759999999999996  0.36758  0.27721  1.0000
  O   O8        1.0  0.1624  0.36758  0.72279  1.0000
  O   O9        1.0  0.8753  0.09698999999999992  0.18568000000000004  1.0000
  O   O10       1.0  0.6247  0.09698999999999992  0.81432  1.0000
  O   O11       1.0  0.3753  0.5969899999999999  0.6856800000000001  1.0000
  O   O12       1.0  0.12469999999999999  0.5969899999999999  0.31431999999999993  1.0000
  O   O13       1.0  0.12470000000000002  0.9030100000000002  0.81432  1.0000
  O   O14       1.0  0.3753  0.9030100000000002  0.18568000000000004  1.0000
  O   O15       1.0  0.6247  0.4030100000000001  0.31431999999999993  1.0000
  O   O16       1.0  0.8753  0.4030100000000001  0.6856800000000001  1.0000
  O   O17       1.0  0.9548999999999999  0.89618  0.47936000000000006  1.0000
  O   O18       1.0  0.5451  0.89618  0.52064  1.0000
  O   O19       1.0  0.4549  0.39618  0.9793600000000001  1.0000
  O   O20       1.0  0.045099999999999994  0.39618  0.02063999999999994  1.0000
  O   O21       1.0  0.04510000000000001  0.10382000000000004  0.52064  1.0000
  O   O22       1.0  0.4549  0.10382000000000004  0.47936000000000006  1.0000
  O   O23       1.0  0.5451  0.60382  0.02063999999999994  1.0000
  O   O24       1.0  0.9548999999999999  0.60382  0.9793600000000001  1.0000
  O   O25       1.0  0.22250000000000003  0.87142  0.43809000000000003  1.0000
  O   O26       1.0  0.27749999999999997  0.87142  0.5619099999999999  1.0000
  O   O27       1.0  0.7225000000000001  0.37142000000000014  0.9380900000000002  1.0000
  O   O28       1.0  0.7775  0.37142000000000014  0.061909999999999965  1.0000
  O   O29       1.0  0.7775  0.12858000000000003  0.5619099999999999  1.0000
  O   O30       1.0  0.7225000000000001  0.12858000000000003  0.43809000000000003  1.0000
  O   O31       1.0  0.27749999999999997  0.62858  0.061909999999999965  1.0000
  O   O32       1.0  0.22250000000000006  0.62858  0.9380900000000002  1.0000
  O   O33       1.0  0.9939  0.39641000000000004  0.35109  1.0000
  O   O34       1.0  0.5061  0.39641000000000004  0.64891  1.0000
  O   O35       1.0  0.49390000000000006  0.8964100000000002  0.85109  1.0000
  O   O36       1.0  0.006100000000000001  0.8964100000000002  0.14891  1.0000
  O   O37       1.0  0.006100000000000001  0.6035900000000001  0.64891  1.0000
  O   O38       1.0  0.49390000000000006  0.6035900000000001  0.35109  1.0000
  O   O39       1.0  0.5061  0.10358999999999996  0.14891  1.0000
  O   O40       1.0  0.9939  0.10358999999999996  0.85109  1.0000
  O   O41       1.0  0.82778  0.35107  0.42971  1.0000
  O   O42       1.0  0.67222  0.35107  0.57029  1.0000
  O   O43       1.0  0.32777999999999996  0.85107  0.92971  1.0000
  O   O44       1.0  0.17222  0.85107  0.07029000000000002  1.0000
  O   O45       1.0  0.17222  0.64893  0.57029  1.0000
  O   O46       1.0  0.32777999999999996  0.64893  0.42971  1.0000
  O   O47       1.0  0.67222  0.14893  0.07029000000000002  1.0000
  O   O48       1.0  0.82778  0.14893  0.92971  1.0000
  O   O49       1.0  0.4992999999999999  0.040200000000000014  0.2662  1.0000
  O   O50       1.0  0.0007000000000001824  0.040200000000000014  0.7338000000000001  1.0000
  O   O51       1.0  0.9993  0.5402  0.7662  1.0000
  O   O52       1.0  0.5007  0.5402  0.23380000000000004  1.0000
  O   O53       1.0  0.5007  0.9598  0.7338000000000001  1.0000
  O   O54       1.0  0.9993  0.9598  0.2662  1.0000
  O   O55       1.0  0.0007000000000001566  0.45980000000000004  0.23380000000000004  1.0000
  O   O56       1.0  0.4992999999999999  0.45980000000000004  0.7662  1.0000
  O   O57       1.0  0.57504  0.22238000000000005  0.25011  1.0000
  O   O58       1.0  0.92496  0.22238000000000005  0.74989  1.0000
  O   O59       1.0  0.07504  0.72238  0.75011  1.0000
  O   O60       1.0  0.42496  0.72238  0.24989000000000003  1.0000
  O   O61       1.0  0.42496  0.77762  0.74989  1.0000
  O   O62       1.0  0.07504  0.77762  0.25011  1.0000
  O   O63       1.0  0.92496  0.27762  0.24989000000000003  1.0000
  O   O64       1.0  0.57504  0.27762  0.75011  1.0000
  O   O65       1.0  0.7657499999999999  0.0947  0.28668  1.0000
  O   O66       1.0  0.7342500000000001  0.0947  0.71332  1.0000
  O   O67       1.0  0.26575  0.5947  0.7866800000000002  1.0000
  O   O68       1.0  0.23425000000000004  0.5947  0.21332  1.0000
  O   O69       1.0  0.23425000000000004  0.9053000000000001  0.71332  1.0000
  O   O70       1.0  0.26574999999999993  0.9053000000000001  0.28668  1.0000
  O   O71       1.0  0.7342500000000001  0.4053  0.21332  1.0000
  O   O72       1.0  0.76575  0.4053  0.7866800000000002  1.0000
  O   O73       1.0  0.5627  0.15914000000000006  0.33801000000000003  1.0000
  O   O74       1.0  0.9372999999999999  0.15914000000000006  0.6619900000000001  1.0000
  O   O75       1.0  0.06269999999999998  0.6591400000000002  0.83801  1.0000
  O   O76       1.0  0.4373  0.6591400000000002  0.16198999999999997  1.0000
  O   O77       1.0  0.4373  0.84086  0.6619900000000001  1.0000
  O   O78       1.0  0.06269999999999998  0.84086  0.33801000000000003  1.0000
  O   O79       1.0  0.9372999999999999  0.34086  0.16198999999999997  1.0000
  O   O80       1.0  0.5627  0.34086  0.83801  1.0000
  O   O81       1.0  0.026679999999999992  0.033970000000000056  0.39535  1.0000
  O   O82       1.0  0.47331999999999996  0.033970000000000056  0.60465  1.0000
  O   O83       1.0  0.52668  0.5339700000000001  0.89535  1.0000
  O   O84       1.0  0.9733199999999999  0.5339700000000001  0.10465000000000002  1.0000
  O   O85       1.0  0.9733199999999999  0.9660299999999999  0.60465  1.0000
  O   O86       1.0  0.52668  0.9660299999999999  0.39535  1.0000
  O   O87       1.0  0.47331999999999996  0.46602999999999994  0.10465000000000002  1.0000
  O   O88       1.0  0.026679999999999992  0.46602999999999994  0.89535  1.0000
  O   O89       1.0  0.08936  0.21795999999999996  0.41437  1.0000
  O   O90       1.0  0.41064  0.21795999999999996  0.5856300000000001  1.0000
  O   O91       1.0  0.58936  0.7179599999999999  0.91437  1.0000
  O   O92       1.0  0.91064  0.7179599999999999  0.08562999999999998  1.0000
  O   O93       1.0  0.91064  0.7820400000000002  0.5856300000000001  1.0000
  O   O94       1.0  0.58936  0.7820400000000002  0.41437  1.0000
  O   O95       1.0  0.41064  0.28204000000000007  0.08562999999999998  1.0000
  O   O96       1.0  0.08936000000000001  0.28204000000000007  0.91437  1.0000
  O   O97       1.0  0.0646  0.15640999999999994  0.32516  1.0000
  O   O98       1.0  0.4354  0.15640999999999994  0.67484  1.0000
  O   O99       1.0  0.5646  0.65641  0.82516  1.0000
  O   O100      1.0  0.9354  0.65641  0.17484  1.0000
  O   O101      1.0  0.9354  0.8435900000000001  0.67484  1.0000
  O   O102      1.0  0.5646  0.8435900000000001  0.32516  1.0000
  O   O103      1.0  0.4354  0.34359000000000006  0.17484  1.0000
  O   O104      1.0  0.06460000000000002  0.34359000000000006  0.82516  1.0000
  O   O105      1.0  0.2842  0.10129999999999995  0.38222  1.0000
  O   O106      1.0  0.21580000000000002  0.10129999999999995  0.6177800000000001  1.0000
  O   O107      1.0  0.7842000000000001  0.6013  0.8822200000000001  1.0000
  O   O108      1.0  0.7158  0.6013  0.11778  1.0000
  O   O109      1.0  0.7158  0.8987000000000002  0.6177800000000001  1.0000
  O   O110      1.0  0.7841999999999999  0.8987000000000002  0.38222  1.0000
  O   O111      1.0  0.2158  0.39870000000000005  0.11778  1.0000
  O   O112      1.0  0.2842  0.39870000000000005  0.8822200000000001  1.0000
  O   O113      1.0  0.9835200000000001  0.71645  0.41422  1.0000
  O   O114      1.0  0.51648  0.71645  0.58578  1.0000
  O   O115      1.0  0.48352  0.21645000000000006  0.9142200000000001  1.0000
  O   O116      1.0  0.01648  0.21645000000000006  0.08578000000000002  1.0000
  O   O117      1.0  0.01648  0.28354999999999997  0.58578  1.0000
  O   O118      1.0  0.48352  0.28354999999999997  0.41422  1.0000
  O   O119      1.0  0.51648  0.7835500000000001  0.08578000000000002  1.0000
  O   O120      1.0  0.9835200000000001  0.7835500000000001  0.9142200000000001  1.0000
  O   O121      1.0  0.028470000000000006  0.53257  0.44075  1.0000
  O   O122      1.0  0.47153  0.53257  0.55925  1.0000
  O   O123      1.0  0.52847  0.03256999999999999  0.94075  1.0000
  O   O124      1.0  0.9715300000000001  0.03256999999999999  0.059250000000000025  1.0000
  O   O125      1.0  0.9715300000000001  0.46743  0.55925  1.0000
  O   O126      1.0  0.52847  0.46743  0.44075  1.0000
  O   O127      1.0  0.47153  0.96743  0.059250000000000025  1.0000
  O   O128      1.0  0.028470000000000016  0.96743  0.94075  1.0000
  O   O129      1.0  0.9126700000000001  0.6578000000000002  0.49872  1.0000
  O   O130      1.0  0.58733  0.6578000000000002  0.50128  1.0000
  O   O131      1.0  0.41267  0.15780000000000016  0.9987200000000002  1.0000
  O   O132      1.0  0.08732999999999999  0.15780000000000016  0.0012800000000000036  1.0000
  O   O133      1.0  0.08732999999999999  0.34219999999999984  0.50128  1.0000
  O   O134      1.0  0.41267  0.34219999999999984  0.49872  1.0000
  O   O135      1.0  0.58733  0.8421999999999998  0.0012800000000000036  1.0000
  O   O136      1.0  0.9126700000000001  0.8421999999999998  0.9987200000000002  1.0000
  O   O137      1.0  0.76758  0.5944600000000001  0.41934  1.0000
  O   O138      1.0  0.73242  0.5944600000000001  0.58066  1.0000
  O   O139      1.0  0.26758000000000004  0.09446000000000021  0.91934  1.0000
  O   O140      1.0  0.23242  0.09446000000000021  0.08066000000000001  1.0000
  O   O141      1.0  0.23242000000000002  0.4055399999999999  0.58066  1.0000
  O   O142      1.0  0.26758000000000004  0.4055399999999999  0.41934  1.0000
  O   O143      1.0  0.73242  0.9055399999999999  0.08066000000000001  1.0000
  O   O144      1.0  0.7675799999999999  0.9055399999999999  0.91934  1.0000
