data_image0
_chemical_formula_structural       Cd8P12I4
_chemical_formula_sum              "Cd8 P12 I4"
_cell_length_a       8.243
_cell_length_b       9.334
_cell_length_c       7.516
_cell_angle_alpha    90.0
_cell_angle_beta     99.79999999999998
_cell_angle_gamma    90.0

_space_group_name_H-M_alt    "P 1"
_space_group_IT_number       1

loop_
  _space_group_symop_operation_xyz
  'x, y, z'

loop_
  _atom_site_type_symbol
  _atom_site_label
  _atom_site_symmetry_multiplicity
  _atom_site_fract_x
  _atom_site_fract_y
  _atom_site_fract_z
  _atom_site_occupancy
  Cd  Cd1       1.0  0.0  0.141  0.0  1.0000
  Cd  Cd2       1.0  0.0  0.8590000000000001  0.5  1.0000
  Cd  Cd3       1.0  0.5  0.641  0.0  1.0000
  Cd  Cd4       1.0  0.5  0.359  0.5  1.0000
  Cd  Cd5       1.0  0.5  0.145  0.069  1.0000
  Cd  Cd6       1.0  0.5  0.855  0.569  1.0000
  Cd  Cd7       1.0  0.0  0.645  0.069  1.0000
  Cd  Cd8       1.0  0.0  0.355  0.569  1.0000
  P   P1        1.0  0.147  0.043  0.324  1.0000
  P   P2        1.0  0.147  0.957  0.8240000000000001  1.0000
  P   P3        1.0  0.6469999999999999  0.543  0.324  1.0000
  P   P4        1.0  0.6469999999999999  0.457  0.8240000000000001  1.0000
  P   P5        1.0  0.7419999999999999  0.29  0.04  1.0000
  P   P6        1.0  0.7419999999999999  0.71  0.54  1.0000
  P   P7        1.0  0.242  0.79  0.04  1.0000
  P   P8        1.0  0.242  0.21000000000000005  0.54  1.0000
  P   P9        1.0  0.3879999999999999  0.044  0.761  1.0000
  P   P10       1.0  0.3879999999999999  0.9560000000000001  0.261  1.0000
  P   P11       1.0  0.8879999999999999  0.544  0.761  1.0000
  P   P12       1.0  0.8879999999999999  0.456  0.261  1.0000
  I   I1        1.0  0.24  0.374  0.060000000000000005  1.0000
  I   I2        1.0  0.24  0.626  0.56  1.0000
  I   I3        1.0  0.74  0.8740000000000001  0.060000000000000005  1.0000
  I   I4        1.0  0.74  0.126  0.56  1.0000
