data_image0
_chemical_formula_structural       Np16P16S64
_chemical_formula_sum              "Np16 P16 S64"
_cell_length_a       10.8525
_cell_length_b       10.8525
_cell_length_c       19.2486
_cell_angle_alpha    90.0
_cell_angle_beta     90.0
_cell_angle_gamma    90.0

_space_group_name_H-M_alt    "P 1"
_space_group_IT_number       1

loop_
  _space_group_symop_operation_xyz
  'x, y, z'

loop_
  _atom_site_type_symbol
  _atom_site_label
  _atom_site_symmetry_multiplicity
  _atom_site_fract_x
  _atom_site_fract_y
  _atom_site_fract_z
  _atom_site_occupancy
  Np  Np1       1.0  0.0  0.25  0.125  1.0000
  Np  Np2       1.0  0.5  0.75  0.625  1.0000
  Np  Np3       1.0  0.0  0.75  0.375  1.0000
  Np  Np4       1.0  0.5  0.25  0.8749999999999999  1.0000
  Np  Np5       1.0  0.0  0.75  0.8749999999999999  1.0000
  Np  Np6       1.0  0.5  0.25  0.375  1.0000
  Np  Np7       1.0  0.0  0.25  0.625  1.0000
  Np  Np8       1.0  0.5  0.75  0.125  1.0000
  Np  Np9       1.0  0.0  0.25  0.375  1.0000
  Np  Np10      1.0  0.5  0.75  0.8749999999999999  1.0000
  Np  Np11      1.0  0.0  0.75  0.625  1.0000
  Np  Np12      1.0  0.5  0.25  0.125  1.0000
  Np  Np13      1.0  0.5  0.25  0.625  1.0000
  Np  Np14      1.0  0.0  0.75  0.125  1.0000
  Np  Np15      1.0  0.5  0.75  0.375  1.0000
  Np  Np16      1.0  0.0  0.25  0.8749999999999999  1.0000
  P   P1        1.0  0.03724  0.0  0.25  1.0000
  P   P2        1.0  0.46276  0.0  0.75  1.0000
  P   P3        1.0  0.25  0.7872400000000002  0.5  1.0000
  P   P4        1.0  0.25  0.21276000000000003  0.0  1.0000
  P   P5        1.0  0.53724  0.5  0.75  1.0000
  P   P6        1.0  0.96276  0.5  0.25  1.0000
  P   P7        1.0  0.75  0.28724  0.0  1.0000
  P   P8        1.0  0.75  0.7127600000000001  0.5  1.0000
  P   P9        1.0  0.96276  0.0  0.75  1.0000
  P   P10       1.0  0.53724  0.0  0.25  1.0000
  P   P11       1.0  0.75  0.21276000000000003  0.5  1.0000
  P   P12       1.0  0.75  0.7872400000000002  0.0  1.0000
  P   P13       1.0  0.46276  0.5  0.25  1.0000
  P   P14       1.0  0.03724  0.5  0.75  1.0000
  P   P15       1.0  0.25  0.7127600000000001  0.0  1.0000
  P   P16       1.0  0.25  0.28724  0.5  1.0000
  S   S1        1.0  0.24767  0.3189  0.91292  1.0000
  S   S2        1.0  0.25233000000000005  0.6811000000000001  0.41291999999999995  1.0000
  S   S3        1.0  0.9311  0.9976700000000001  0.16291999999999995  1.0000
  S   S4        1.0  0.5689  0.0023299999999999987  0.6629199999999998  1.0000
  S   S5        1.0  0.25233000000000005  0.3189  0.08708000000000005  1.0000
  S   S6        1.0  0.24767  0.6811000000000001  0.58708  1.0000
  S   S7        1.0  0.5689  0.9976700000000001  0.83708  1.0000
  S   S8        1.0  0.9311  0.0023299999999999987  0.33708000000000005  1.0000
  S   S9        1.0  0.7476700000000001  0.8189000000000001  0.41291999999999995  1.0000
  S   S10       1.0  0.75233  0.18109999999999998  0.91292  1.0000
  S   S11       1.0  0.4311  0.49767000000000006  0.6629199999999998  1.0000
  S   S12       1.0  0.06889999999999998  0.50233  0.16291999999999995  1.0000
  S   S13       1.0  0.75233  0.8189000000000001  0.58708  1.0000
  S   S14       1.0  0.7476700000000001  0.18109999999999998  0.08708000000000005  1.0000
  S   S15       1.0  0.06889999999999998  0.49767000000000006  0.33708000000000005  1.0000
  S   S16       1.0  0.4311  0.50233  0.83708  1.0000
  S   S17       1.0  0.75233  0.6811000000000001  0.08708000000000005  1.0000
  S   S18       1.0  0.7476700000000001  0.3189  0.58708  1.0000
  S   S19       1.0  0.06889999999999998  0.0023299999999999987  0.83708  1.0000
  S   S20       1.0  0.4311  0.9976700000000001  0.33708000000000005  1.0000
  S   S21       1.0  0.7476700000000001  0.6811000000000001  0.91292  1.0000
  S   S22       1.0  0.75233  0.3189  0.41291999999999995  1.0000
  S   S23       1.0  0.4311  0.0023299999999999987  0.16291999999999995  1.0000
  S   S24       1.0  0.06889999999999998  0.9976700000000001  0.6629199999999998  1.0000
  S   S25       1.0  0.25233000000000005  0.18109999999999998  0.58708  1.0000
  S   S26       1.0  0.24767  0.8189000000000001  0.08708000000000005  1.0000
  S   S27       1.0  0.5689  0.50233  0.33708000000000005  1.0000
  S   S28       1.0  0.9311  0.49767000000000006  0.83708  1.0000
  S   S29       1.0  0.24767  0.18109999999999998  0.41291999999999995  1.0000
  S   S30       1.0  0.25233000000000005  0.8189000000000001  0.91292  1.0000
  S   S31       1.0  0.9311  0.50233  0.6629199999999998  1.0000
  S   S32       1.0  0.5689  0.49767000000000006  0.16291999999999995  1.0000
  S   S33       1.0  0.09195  0.11176000000000001  0.00233  1.0000
  S   S34       1.0  0.4080500000000001  0.88824  0.50233  1.0000
  S   S35       1.0  0.13823999999999997  0.84195  0.25233  1.0000
  S   S36       1.0  0.36176  0.15805000000000002  0.7523299999999999  1.0000
  S   S37       1.0  0.4080500000000001  0.11176000000000001  0.9976699999999998  1.0000
  S   S38       1.0  0.09195  0.88824  0.49767  1.0000
  S   S39       1.0  0.36176  0.84195  0.74767  1.0000
  S   S40       1.0  0.13823999999999997  0.15805000000000002  0.24766999999999997  1.0000
  S   S41       1.0  0.59195  0.61176  0.50233  1.0000
  S   S42       1.0  0.9080500000000001  0.38824  0.00233  1.0000
  S   S43       1.0  0.63824  0.34195  0.7523299999999999  1.0000
  S   S44       1.0  0.8617600000000001  0.65805  0.25233  1.0000
  S   S45       1.0  0.9080500000000001  0.61176  0.49767  1.0000
  S   S46       1.0  0.59195  0.38824  0.9976699999999998  1.0000
  S   S47       1.0  0.8617600000000001  0.34195  0.24766999999999997  1.0000
  S   S48       1.0  0.63824  0.65805  0.74767  1.0000
  S   S49       1.0  0.9080500000000001  0.88824  0.9976699999999998  1.0000
  S   S50       1.0  0.59195  0.11176000000000001  0.49767  1.0000
  S   S51       1.0  0.8617600000000001  0.15805000000000002  0.74767  1.0000
  S   S52       1.0  0.63824  0.84195  0.24766999999999997  1.0000
  S   S53       1.0  0.59195  0.88824  0.00233  1.0000
  S   S54       1.0  0.9080500000000001  0.11176000000000001  0.50233  1.0000
  S   S55       1.0  0.63824  0.15805000000000002  0.25233  1.0000
  S   S56       1.0  0.8617600000000001  0.84195  0.7523299999999999  1.0000
  S   S57       1.0  0.4080500000000001  0.38824  0.49767  1.0000
  S   S58       1.0  0.09195  0.61176  0.9976699999999998  1.0000
  S   S59       1.0  0.36176  0.65805  0.24766999999999997  1.0000
  S   S60       1.0  0.13823999999999997  0.34195  0.74767  1.0000
  S   S61       1.0  0.09195  0.38824  0.50233  1.0000
  S   S62       1.0  0.4080500000000001  0.61176  0.00233  1.0000
  S   S63       1.0  0.13823999999999997  0.65805  0.7523299999999999  1.0000
  S   S64       1.0  0.36176  0.34195  0.25233  1.0000
