data_image0
_chemical_formula_structural       Co2Te4
_chemical_formula_sum              "Co2 Te4"
_cell_length_a       3.882
_cell_length_b       5.301
_cell_length_c       6.298
_cell_angle_alpha    90.0
_cell_angle_beta     90.0
_cell_angle_gamma    90.0

_space_group_name_H-M_alt    "P 1"
_space_group_IT_number       1

loop_
  _space_group_symop_operation_xyz
  'x, y, z'

loop_
  _atom_site_type_symbol
  _atom_site_label
  _atom_site_symmetry_multiplicity
  _atom_site_fract_x
  _atom_site_fract_y
  _atom_site_fract_z
  _atom_site_occupancy
  Co  Co1       1.0  0.0  0.0  0.0  1.0000
  Co  Co2       1.0  0.49999999999999994  0.5  0.5  1.0000
  Te  Te1       1.0  0.0  0.22  0.36  1.0000
  Te  Te2       1.0  0.0  0.78  0.64  1.0000
  Te  Te3       1.0  0.49999999999999994  0.2800000000000001  0.8599999999999999  1.0000
  Te  Te4       1.0  0.49999999999999994  0.7200000000000001  0.14  1.0000
