data_image0
_chemical_formula_structural       Ge4Zn4Na8
_chemical_formula_sum              "Ge4 Zn4 Na8"
_cell_length_a       9.1922
_cell_length_b       7.4198
_cell_length_c       5.5002
_cell_angle_alpha    90.0
_cell_angle_beta     90.0
_cell_angle_gamma    90.0

_space_group_name_H-M_alt    "P 1"
_space_group_IT_number       1

loop_
  _space_group_symop_operation_xyz
  'x, y, z'

loop_
  _atom_site_type_symbol
  _atom_site_label
  _atom_site_symmetry_multiplicity
  _atom_site_fract_x
  _atom_site_fract_y
  _atom_site_fract_z
  _atom_site_occupancy
  Ge  Ge1       1.0  0.5  0.26858  0.25  1.0000
  Ge  Ge2       1.0  0.5  0.73142  0.7500000000000001  1.0000
  Ge  Ge3       1.0  0.0  0.76858  0.25  1.0000
  Ge  Ge4       1.0  0.0  0.23142000000000004  0.7500000000000001  1.0000
  Zn  Zn1       1.0  0.5  0.0  0.0  1.0000
  Zn  Zn2       1.0  0.5  0.0  0.5  1.0000
  Zn  Zn3       1.0  0.0  0.5  0.0  1.0000
  Zn  Zn4       1.0  0.0  0.5  0.5  1.0000
  Na  Na1       1.0  0.17479  0.14055  0.25  1.0000
  Na  Na2       1.0  0.82521  0.85945  0.7500000000000001  1.0000
  Na  Na3       1.0  0.17479  0.85945  0.7500000000000001  1.0000
  Na  Na4       1.0  0.82521  0.14055  0.25  1.0000
  Na  Na5       1.0  0.67479  0.64055  0.25  1.0000
  Na  Na6       1.0  0.32521  0.35945  0.7500000000000001  1.0000
  Na  Na7       1.0  0.67479  0.35945  0.7500000000000001  1.0000
  Na  Na8       1.0  0.32521  0.64055  0.25  1.0000
