data_image0
_chemical_formula_structural       Na14Al8P18O64
_chemical_formula_sum              "Na14 Al8 P18 O64"
_cell_length_a       14.054
_cell_length_b       14.054
_cell_length_c       6.1718
_cell_angle_alpha    90.0
_cell_angle_beta     90.0
_cell_angle_gamma    90.0

_space_group_name_H-M_alt    "P 1"
_space_group_IT_number       1

loop_
  _space_group_symop_operation_xyz
  'x, y, z'

loop_
  _atom_site_type_symbol
  _atom_site_label
  _atom_site_symmetry_multiplicity
  _atom_site_fract_x
  _atom_site_fract_y
  _atom_site_fract_z
  _atom_site_occupancy
  Na  Na1       1.0  0.42251  0.75865  0.09314  1.0000
  Na  Na2       1.0  0.75865  0.5774900000000001  0.90686  1.0000
  Na  Na3       1.0  0.5774900000000001  0.24134999999999995  0.09314  1.0000
  Na  Na4       1.0  0.24134999999999995  0.42251  0.90686  1.0000
  Na  Na5       1.0  0.9225099999999999  0.74135  0.40686000000000005  1.0000
  Na  Na6       1.0  0.07749  0.25865000000000005  0.40686000000000005  1.0000
  Na  Na7       1.0  0.74135  0.07749  0.59314  1.0000
  Na  Na8       1.0  0.25865000000000005  0.9225099999999999  0.59314  1.0000
  Na  Na9       1.0  0.5  0.0  0.3156  1.0000
  Na  Na10      1.0  0.0  0.5  0.6844000000000001  1.0000
  Na  Na11      1.0  0.0  0.5  0.1844  1.0000
  Na  Na12      1.0  0.5  0.0  0.8156  1.0000
  Na  Na13      1.0  0.5  0.5  0.0  1.0000
  Na  Na14      1.0  0.0  0.0  0.5  1.0000
  Al  Al1       1.0  0.32097  0.62225  0.63747  1.0000
  Al  Al2       1.0  0.62225  0.6790299999999999  0.36253  1.0000
  Al  Al3       1.0  0.6790299999999999  0.37775000000000003  0.63747  1.0000
  Al  Al4       1.0  0.37775000000000003  0.32097  0.36253  1.0000
  Al  Al5       1.0  0.82097  0.87775  0.86253  1.0000
  Al  Al6       1.0  0.17903000000000002  0.12224999999999996  0.86253  1.0000
  Al  Al7       1.0  0.87775  0.17903000000000002  0.13746999999999998  1.0000
  Al  Al8       1.0  0.12224999999999996  0.82097  0.13746999999999998  1.0000
  P   P1        1.0  0.62752  0.74207  0.8499000000000002  1.0000
  P   P2        1.0  0.74207  0.37248000000000003  0.1500999999999999  1.0000
  P   P3        1.0  0.37248000000000003  0.25793  0.8499000000000002  1.0000
  P   P4        1.0  0.25793  0.62752  0.1500999999999999  1.0000
  P   P5        1.0  0.12752000000000008  0.75793  0.6500999999999999  1.0000
  P   P6        1.0  0.87248  0.24207  0.6500999999999999  1.0000
  P   P7        1.0  0.75793  0.87248  0.3499000000000001  1.0000
  P   P8        1.0  0.24207  0.12752000000000008  0.3499000000000001  1.0000
  P   P9        1.0  0.46166  0.7998800000000001  0.60041  1.0000
  P   P10       1.0  0.7998800000000001  0.53834  0.39959000000000006  1.0000
  P   P11       1.0  0.53834  0.20011999999999983  0.60041  1.0000
  P   P12       1.0  0.20011999999999983  0.46166  0.39959000000000006  1.0000
  P   P13       1.0  0.96166  0.7001199999999999  0.89959  1.0000
  P   P14       1.0  0.038339999999999985  0.29988000000000015  0.89959  1.0000
  P   P15       1.0  0.7001199999999999  0.038339999999999985  0.10041000000000011  1.0000
  P   P16       1.0  0.29988000000000015  0.96166  0.10041000000000011  1.0000
  P   P17       1.0  0.5  0.5  0.5  1.0000
  P   P18       1.0  0.0  0.0  0.0  1.0000
  O   O1        1.0  0.42717  0.89936  0.5600000000000002  1.0000
  O   O2        1.0  0.89936  0.57283  0.4399999999999999  1.0000
  O   O3        1.0  0.57283  0.10063999999999995  0.5600000000000002  1.0000
  O   O4        1.0  0.10063999999999995  0.42717  0.4399999999999999  1.0000
  O   O5        1.0  0.92717  0.60064  0.9399999999999998  1.0000
  O   O6        1.0  0.07283  0.39936000000000016  0.9399999999999998  1.0000
  O   O7        1.0  0.60064  0.07283  0.06000000000000006  1.0000
  O   O8        1.0  0.39936000000000016  0.92717  0.06000000000000006  1.0000
  O   O9        1.0  0.54197  0.81323  0.7882  1.0000
  O   O10       1.0  0.81323  0.45803000000000005  0.2118  1.0000
  O   O11       1.0  0.45803000000000005  0.18677  0.7882  1.0000
  O   O12       1.0  0.18677  0.54197  0.2118  1.0000
  O   O13       1.0  0.04197000000000006  0.68677  0.7118  1.0000
  O   O14       1.0  0.95803  0.3132299999999999  0.7118  1.0000
  O   O15       1.0  0.68677  0.95803  0.2882  1.0000
  O   O16       1.0  0.3132299999999999  0.04197000000000006  0.2882  1.0000
  O   O17       1.0  0.38751  0.73621  0.7038000000000002  1.0000
  O   O18       1.0  0.73621  0.61249  0.2961999999999999  1.0000
  O   O19       1.0  0.61249  0.26378999999999997  0.7038000000000002  1.0000
  O   O20       1.0  0.26378999999999997  0.38751  0.2961999999999999  1.0000
  O   O21       1.0  0.88751  0.76379  0.7961999999999999  1.0000
  O   O22       1.0  0.11248999999999998  0.23621000000000003  0.7961999999999999  1.0000
  O   O23       1.0  0.76379  0.11248999999999998  0.2038000000000002  1.0000
  O   O24       1.0  0.23621000000000003  0.88751  0.2038000000000002  1.0000
  O   O25       1.0  0.51085  0.75581  0.4067  1.0000
  O   O26       1.0  0.75581  0.48915  0.5932999999999999  1.0000
  O   O27       1.0  0.48915  0.24419000000000002  0.4067  1.0000
  O   O28       1.0  0.24419000000000002  0.51085  0.5932999999999999  1.0000
  O   O29       1.0  0.010850000000000026  0.7441899999999999  0.0933  1.0000
  O   O30       1.0  0.98915  0.25580999999999987  0.0933  1.0000
  O   O31       1.0  0.7441899999999999  0.98915  0.9067000000000001  1.0000
  O   O32       1.0  0.25580999999999987  0.010850000000000026  0.9067000000000001  1.0000
  O   O33       1.0  0.7113599999999999  0.8052199999999999  0.8791000000000002  1.0000
  O   O34       1.0  0.8052199999999999  0.2886400000000001  0.1208999999999999  1.0000
  O   O35       1.0  0.2886400000000001  0.19478000000000006  0.8791000000000002  1.0000
  O   O36       1.0  0.19478000000000006  0.7113599999999999  0.1208999999999999  1.0000
  O   O37       1.0  0.21136  0.6947800000000001  0.6209  1.0000
  O   O38       1.0  0.7886400000000001  0.3052199999999998  0.6209  1.0000
  O   O39       1.0  0.6947800000000001  0.7886400000000001  0.3791000000000002  1.0000
  O   O40       1.0  0.3052199999999998  0.21136  0.3791000000000002  1.0000
  O   O41       1.0  0.59683  0.6926299999999999  0.05750000000000011  1.0000
  O   O42       1.0  0.6926299999999999  0.40317000000000003  0.9424999999999999  1.0000
  O   O43       1.0  0.40317000000000003  0.30737000000000014  0.05750000000000011  1.0000
  O   O44       1.0  0.30737000000000014  0.59683  0.9424999999999999  1.0000
  O   O45       1.0  0.09682999999999999  0.8073700000000001  0.4424999999999999  1.0000
  O   O46       1.0  0.90317  0.19262999999999986  0.4424999999999999  1.0000
  O   O47       1.0  0.8073700000000001  0.90317  0.5575000000000001  1.0000
  O   O48       1.0  0.19262999999999986  0.09682999999999999  0.5575000000000001  1.0000
  O   O49       1.0  0.6371800000000001  0.66852  0.6721000000000001  1.0000
  O   O50       1.0  0.66852  0.3628199999999999  0.32789999999999986  1.0000
  O   O51       1.0  0.3628199999999999  0.33148000000000005  0.6721000000000001  1.0000
  O   O52       1.0  0.33148000000000005  0.6371800000000001  0.32789999999999986  1.0000
  O   O53       1.0  0.13718000000000008  0.83148  0.8278999999999999  1.0000
  O   O54       1.0  0.8628199999999999  0.16852  0.8278999999999999  1.0000
  O   O55       1.0  0.83148  0.8628199999999999  0.17210000000000017  1.0000
  O   O56       1.0  0.16852  0.13718000000000008  0.17210000000000017  1.0000
  O   O57       1.0  0.43148  0.55247  0.6522  1.0000
  O   O58       1.0  0.55247  0.56852  0.3478  1.0000
  O   O59       1.0  0.56852  0.44753  0.6522  1.0000
  O   O60       1.0  0.44753  0.43148  0.3478  1.0000
  O   O61       1.0  0.9314799999999999  0.94753  0.8478  1.0000
  O   O62       1.0  0.06852000000000003  0.05247000000000002  0.8478  1.0000
  O   O63       1.0  0.94753  0.06852000000000003  0.1522000000000001  1.0000
  O   O64       1.0  0.05247000000000002  0.9314799999999999  0.1522000000000001  1.0000
