data_image0
_chemical_formula_structural       N16Si12
_chemical_formula_sum              "N16 Si12"
_cell_length_a       7.7523
_cell_length_b       7.7523
_cell_length_c       5.6198
_cell_angle_alpha    90.0
_cell_angle_beta     90.0
_cell_angle_gamma    119.99999999999999

_space_group_name_H-M_alt    "P 1"
_space_group_IT_number       1

loop_
  _space_group_symop_operation_xyz
  'x, y, z'

loop_
  _atom_site_type_symbol
  _atom_site_label
  _atom_site_symmetry_multiplicity
  _atom_site_fract_x
  _atom_site_fract_y
  _atom_site_fract_z
  _atom_site_occupancy
  N   N1        1.0  0.0  0.0  0.5  1.0000
  N   N2        1.0  0.0  0.0  0.0  1.0000
  N   N3        1.0  0.3333  0.6667  0.6351  1.0000
  N   N4        1.0  0.6667  0.3333  0.13509999999999997  1.0000
  N   N5        1.0  0.6533  0.6109  0.4592  1.0000
  N   N6        1.0  0.3891  0.042399999999999986  0.4592  1.0000
  N   N7        1.0  0.9576000000000001  0.3467  0.4592  1.0000
  N   N8        1.0  0.6109  0.6533  0.9592  1.0000
  N   N9        1.0  0.04240000000000001  0.3891  0.9592  1.0000
  N   N10       1.0  0.3467  0.9576  0.9592  1.0000
  N   N11       1.0  0.31689999999999996  0.3197999999999999  0.7288  1.0000
  N   N12       1.0  0.6802000000000001  0.9971  0.7288  1.0000
  N   N13       1.0  0.0028999999999999556  0.6831  0.7288  1.0000
  N   N14       1.0  0.3197999999999999  0.3168999999999999  0.22880000000000011  1.0000
  N   N15       1.0  0.9971000000000001  0.6802000000000001  0.22880000000000011  1.0000
  N   N16       1.0  0.6831000000000002  0.0028999999999999577  0.22880000000000011  1.0000
  Si  Si1       1.0  0.08210000000000002  0.5089  0.6828  1.0000
  Si  Si2       1.0  0.49110000000000004  0.5731999999999999  0.6828  1.0000
  Si  Si3       1.0  0.4268  0.9178999999999999  0.6828  1.0000
  Si  Si4       1.0  0.5088999999999999  0.0821  0.18279999999999982  1.0000
  Si  Si5       1.0  0.5731999999999999  0.4910999999999999  0.18279999999999982  1.0000
  Si  Si6       1.0  0.9178999999999999  0.4268  0.18279999999999982  1.0000
  Si  Si7       1.0  0.2563  0.1712  0.47259999999999996  1.0000
  Si  Si8       1.0  0.8288  0.08509999999999997  0.47259999999999996  1.0000
  Si  Si9       1.0  0.9149000000000002  0.7436999999999999  0.47259999999999996  1.0000
  Si  Si10      1.0  0.1712  0.2563  0.9725999999999999  1.0000
  Si  Si11      1.0  0.08509999999999993  0.8287999999999999  0.9725999999999999  1.0000
  Si  Si12      1.0  0.7436999999999999  0.9148999999999999  0.9725999999999999  1.0000
