data_image0
_chemical_formula_structural       Au50Sn4Ca14
_chemical_formula_sum              "Au50 Sn4 Ca14"
_cell_length_a       12.8287
_cell_length_b       12.8287
_cell_length_c       9.3692
_cell_angle_alpha    90.0
_cell_angle_beta     90.0
_cell_angle_gamma    119.99999999999999

_space_group_name_H-M_alt    "P 1"
_space_group_IT_number       1

loop_
  _space_group_symop_operation_xyz
  'x, y, z'

loop_
  _atom_site_type_symbol
  _atom_site_label
  _atom_site_symmetry_multiplicity
  _atom_site_fract_x
  _atom_site_fract_y
  _atom_site_fract_z
  _atom_site_occupancy
  Au  Au1       1.0  0.44474  0.11755000000000002  0.33672  1.0000
  Au  Au2       1.0  0.8824500000000001  0.32719  0.33672  1.0000
  Au  Au3       1.0  0.67281  0.55526  0.33672  1.0000
  Au  Au4       1.0  0.55526  0.88245  0.33672  1.0000
  Au  Au5       1.0  0.11755000000000006  0.6728100000000001  0.33672  1.0000
  Au  Au6       1.0  0.32719  0.4447400000000001  0.33672  1.0000
  Au  Au7       1.0  0.55526  0.88245  0.6632800000000001  1.0000
  Au  Au8       1.0  0.11755000000000006  0.6728100000000001  0.6632800000000001  1.0000
  Au  Au9       1.0  0.32719  0.4447400000000001  0.6632800000000001  1.0000
  Au  Au10      1.0  0.44474  0.11755000000000002  0.6632800000000001  1.0000
  Au  Au11      1.0  0.8824500000000001  0.32719  0.6632800000000001  1.0000
  Au  Au12      1.0  0.67281  0.55526  0.6632800000000001  1.0000
  Au  Au13      1.0  0.06652  0.26802  0.23324  1.0000
  Au  Au14      1.0  0.7319800000000001  0.7985  0.23324  1.0000
  Au  Au15      1.0  0.2015  0.9334800000000001  0.23324  1.0000
  Au  Au16      1.0  0.9334800000000001  0.7319800000000001  0.23324  1.0000
  Au  Au17      1.0  0.26802  0.2015  0.23324  1.0000
  Au  Au18      1.0  0.7985  0.06652  0.23324  1.0000
  Au  Au19      1.0  0.9334800000000001  0.7319800000000001  0.76676  1.0000
  Au  Au20      1.0  0.26802  0.2015  0.76676  1.0000
  Au  Au21      1.0  0.7985  0.06652  0.76676  1.0000
  Au  Au22      1.0  0.06652  0.26802  0.76676  1.0000
  Au  Au23      1.0  0.7319800000000001  0.7985  0.76676  1.0000
  Au  Au24      1.0  0.2015  0.9334800000000001  0.76676  1.0000
  Au  Au25      1.0  0.23969000000000004  0.06558  0.5  1.0000
  Au  Au26      1.0  0.9344200000000001  0.17411000000000004  0.5  1.0000
  Au  Au27      1.0  0.8258900000000001  0.76031  0.5  1.0000
  Au  Au28      1.0  0.76031  0.9344200000000001  0.5  1.0000
  Au  Au29      1.0  0.06558000000000005  0.8258900000000001  0.5  1.0000
  Au  Au30      1.0  0.17411000000000004  0.23969000000000004  0.5  1.0000
  Au  Au31      1.0  0.141  0.0387  0.0  0.4570
  Au  Au32      1.0  0.9613000000000003  0.1023  0.0  0.4570
  Au  Au33      1.0  0.8977000000000002  0.8590000000000001  0.0  0.4570
  Au  Au34      1.0  0.859  0.9613  0.0  0.4570
  Au  Au35      1.0  0.038700000000000005  0.8977  0.0  0.4570
  Au  Au36      1.0  0.10229999999999999  0.141  0.0  0.4570
  Au  Au37      1.0  0.33330000000000004  0.6667000000000001  0.0  1.0000
  Au  Au38      1.0  0.6667  0.33329999999999993  0.0  1.0000
  Au  Au39      1.0  0.10675000000000005  0.4928900000000001  0.152  0.7640
  Au  Au40      1.0  0.50711  0.61386  0.152  0.7640
  Au  Au41      1.0  0.3861400000000001  0.89325  0.152  0.7640
  Au  Au42      1.0  0.8932500000000001  0.50711  0.152  0.7640
  Au  Au43      1.0  0.4928900000000001  0.3861400000000001  0.152  0.7640
  Au  Au44      1.0  0.61386  0.10675000000000003  0.152  0.7640
  Au  Au45      1.0  0.8932500000000001  0.50711  0.848  0.7640
  Au  Au46      1.0  0.4928900000000001  0.3861400000000001  0.848  0.7640
  Au  Au47      1.0  0.61386  0.10675000000000003  0.848  0.7640
  Au  Au48      1.0  0.10675000000000005  0.4928900000000001  0.848  0.7640
  Au  Au49      1.0  0.50711  0.61386  0.848  0.7640
  Au  Au50      1.0  0.3861400000000001  0.89325  0.848  0.7640
  Sn  Sn1       1.0  0.33330000000000004  0.6667000000000001  0.2967  0.5340
  Sn  Sn2       1.0  0.6667  0.33329999999999993  0.2967  0.5340
  Sn  Sn3       1.0  0.6667  0.33329999999999993  0.7033  0.5340
  Sn  Sn4       1.0  0.33330000000000004  0.6667000000000001  0.7033  0.5340
  Ca  Ca1       1.0  0.12850000000000006  0.46580000000000005  0.5  1.0000
  Ca  Ca2       1.0  0.5342  0.6627000000000001  0.5  1.0000
  Ca  Ca3       1.0  0.3373  0.8714999999999999  0.5  1.0000
  Ca  Ca4       1.0  0.8715  0.5342  0.5  1.0000
  Ca  Ca5       1.0  0.46580000000000005  0.3373  0.5  1.0000
  Ca  Ca6       1.0  0.6627000000000002  0.12850000000000006  0.5  1.0000
  Ca  Ca7       1.0  0.38970000000000005  0.12170000000000002  0.0  1.0000
  Ca  Ca8       1.0  0.8783  0.268  0.0  1.0000
  Ca  Ca9       1.0  0.732  0.6103000000000001  0.0  1.0000
  Ca  Ca10      1.0  0.6103  0.8783  0.0  1.0000
  Ca  Ca11      1.0  0.12170000000000002  0.732  0.0  1.0000
  Ca  Ca12      1.0  0.268  0.38970000000000005  0.0  1.0000
  Ca  Ca13      1.0  0.0  0.0  0.3015  1.0000
  Ca  Ca14      1.0  0.0  0.0  0.6985000000000001  1.0000
  Sn  Sn5       1.0  0.10675000000000005  0.4928900000000001  0.152  0.2360
  Sn  Sn6       1.0  0.50711  0.61386  0.152  0.2360
  Sn  Sn7       1.0  0.3861400000000001  0.89325  0.152  0.2360
  Sn  Sn8       1.0  0.8932500000000001  0.50711  0.152  0.2360
  Sn  Sn9       1.0  0.4928900000000001  0.3861400000000001  0.152  0.2360
  Sn  Sn10      1.0  0.61386  0.10675000000000003  0.152  0.2360
  Sn  Sn11      1.0  0.8932500000000001  0.50711  0.848  0.2360
  Sn  Sn12      1.0  0.4928900000000001  0.3861400000000001  0.848  0.2360
  Sn  Sn13      1.0  0.61386  0.10675000000000003  0.848  0.2360
  Sn  Sn14      1.0  0.10675000000000005  0.4928900000000001  0.848  0.2360
  Sn  Sn15      1.0  0.50711  0.61386  0.848  0.2360
  Sn  Sn16      1.0  0.3861400000000001  0.89325  0.848  0.2360
  Au  Au51      1.0  0.33330000000000004  0.6667000000000001  0.2967  0.4660
  Au  Au52      1.0  0.6667  0.33329999999999993  0.2967  0.4660
  Au  Au53      1.0  0.6667  0.33329999999999993  0.7033  0.4660
  Au  Au54      1.0  0.33330000000000004  0.6667000000000001  0.7033  0.4660
