data_image0
_chemical_formula_structural       Bi16Sr8Cu8Ca4O32
_chemical_formula_sum              "Bi16 Sr8 Cu8 Ca4 O32"
_cell_length_a       5.4054
_cell_length_b       5.4016
_cell_length_c       30.7152
_cell_angle_alpha    90.0
_cell_angle_beta     90.0
_cell_angle_gamma    90.0

_space_group_name_H-M_alt    "P 1"
_space_group_IT_number       1

loop_
  _space_group_symop_operation_xyz
  'x, y, z'

loop_
  _atom_site_type_symbol
  _atom_site_label
  _atom_site_symmetry_multiplicity
  _atom_site_fract_x
  _atom_site_fract_y
  _atom_site_fract_z
  _atom_site_occupancy
  Bi  Bi1       1.0  0.052000000000000005  0.2745  0.0524  0.5000
  Bi  Bi2       1.0  0.052000000000000005  0.7255000000000001  0.9475999999999999  0.5000
  Bi  Bi3       1.0  0.44800000000000006  0.2745  0.9475999999999999  0.5000
  Bi  Bi4       1.0  0.44800000000000006  0.7255000000000001  0.0524  0.5000
  Bi  Bi5       1.0  0.948  0.7255000000000001  0.9475999999999999  0.5000
  Bi  Bi6       1.0  0.948  0.2745  0.0524  0.5000
  Bi  Bi7       1.0  0.552  0.7255000000000001  0.0524  0.5000
  Bi  Bi8       1.0  0.552  0.2745  0.9475999999999999  0.5000
  Bi  Bi9       1.0  0.052000000000000005  0.7745000000000001  0.5524  0.5000
  Bi  Bi10      1.0  0.052000000000000005  0.2255  0.4476  0.5000
  Bi  Bi11      1.0  0.44800000000000006  0.7745000000000001  0.4476  0.5000
  Bi  Bi12      1.0  0.44800000000000006  0.2255  0.5524  0.5000
  Bi  Bi13      1.0  0.948  0.2255  0.4476  0.5000
  Bi  Bi14      1.0  0.948  0.7745000000000001  0.5524  0.5000
  Bi  Bi15      1.0  0.552  0.2255  0.5524  0.5000
  Bi  Bi16      1.0  0.552  0.7745000000000001  0.4476  0.5000
  Sr  Sr1       1.0  0.0  0.75  0.3597  1.0000
  Sr  Sr2       1.0  0.0  0.25  0.6403  1.0000
  Sr  Sr3       1.0  0.5  0.75  0.6403  1.0000
  Sr  Sr4       1.0  0.5  0.25  0.3597  1.0000
  Sr  Sr5       1.0  0.0  0.25  0.8596999999999999  1.0000
  Sr  Sr6       1.0  0.0  0.75  0.14029999999999998  1.0000
  Sr  Sr7       1.0  0.5  0.25  0.14029999999999998  1.0000
  Sr  Sr8       1.0  0.5  0.75  0.8596999999999999  1.0000
  Cu  Cu1       1.0  0.5  0.75  0.3033  1.0000
  Cu  Cu2       1.0  0.5  0.25  0.6967  1.0000
  Cu  Cu3       1.0  0.0  0.75  0.6967  1.0000
  Cu  Cu4       1.0  0.0  0.25  0.3033  1.0000
  Cu  Cu5       1.0  0.5  0.25  0.8032999999999999  1.0000
  Cu  Cu6       1.0  0.5  0.75  0.19669999999999999  1.0000
  Cu  Cu7       1.0  0.0  0.25  0.19669999999999999  1.0000
  Cu  Cu8       1.0  0.0  0.75  0.8032999999999999  1.0000
  Ca  Ca1       1.0  0.5  0.25  0.25  1.0000
  Ca  Ca2       1.0  0.5  0.75  0.75  1.0000
  Ca  Ca3       1.0  0.0  0.25  0.75  1.0000
  Ca  Ca4       1.0  0.0  0.75  0.25  1.0000
  O   O1        1.0  0.75  0.0  0.201  1.0000
  O   O2        1.0  0.75  0.0  0.7989999999999999  1.0000
  O   O3        1.0  0.25  0.0  0.7989999999999999  1.0000
  O   O4        1.0  0.25  0.0  0.201  1.0000
  O   O5        1.0  0.75  0.5  0.701  1.0000
  O   O6        1.0  0.75  0.5  0.299  1.0000
  O   O7        1.0  0.25  0.5  0.299  1.0000
  O   O8        1.0  0.25  0.5  0.701  1.0000
  O   O9        1.0  0.25  0.5  0.201  1.0000
  O   O10       1.0  0.25  0.5  0.7989999999999999  1.0000
  O   O11       1.0  0.75  0.5  0.7989999999999999  1.0000
  O   O12       1.0  0.75  0.5  0.201  1.0000
  O   O13       1.0  0.25  0.0  0.701  1.0000
  O   O14       1.0  0.25  0.0  0.299  1.0000
  O   O15       1.0  0.75  0.0  0.299  1.0000
  O   O16       1.0  0.75  0.0  0.701  1.0000
  O   O17       1.0  0.0  0.25  0.385  1.0000
  O   O18       1.0  0.0  0.75  0.615  1.0000
  O   O19       1.0  0.5  0.25  0.615  1.0000
  O   O20       1.0  0.5  0.75  0.385  1.0000
  O   O21       1.0  0.0  0.75  0.885  1.0000
  O   O22       1.0  0.0  0.25  0.11499999999999999  1.0000
  O   O23       1.0  0.5  0.75  0.11499999999999999  1.0000
  O   O24       1.0  0.5  0.25  0.885  1.0000
  O   O25       1.0  0.5  0.27  0.0524  1.0000
  O   O26       1.0  0.5  0.73  0.9475999999999999  1.0000
  O   O27       1.0  0.0  0.27  0.9475999999999999  1.0000
  O   O28       1.0  0.0  0.73  0.0524  1.0000
  O   O29       1.0  0.5  0.77  0.5524  1.0000
  O   O30       1.0  0.5  0.22999999999999998  0.4476  1.0000
  O   O31       1.0  0.0  0.77  0.4476  1.0000
  O   O32       1.0  0.0  0.22999999999999998  0.5524  1.0000
