data_image0
_chemical_formula_structural       Fe2Se2O2Li2H2
_chemical_formula_sum              "Fe2 Se2 O2 Li2 H2"
_cell_length_a       3.7958
_cell_length_b       3.7958
_cell_length_c       9.2207
_cell_angle_alpha    90.0
_cell_angle_beta     90.0
_cell_angle_gamma    90.0

_space_group_name_H-M_alt    "P 1"
_space_group_IT_number       1

loop_
  _space_group_symop_operation_xyz
  'x, y, z'

loop_
  _atom_site_type_symbol
  _atom_site_label
  _atom_site_symmetry_multiplicity
  _atom_site_fract_x
  _atom_site_fract_y
  _atom_site_fract_z
  _atom_site_occupancy
  Fe  Fe1       1.0  0.25  0.75  0.0  0.9730
  Fe  Fe2       1.0  0.75  0.25  0.0  0.9730
  Se  Se1       1.0  0.75  0.75  0.16116999999999995  1.0000
  Se  Se2       1.0  0.25  0.25  0.8388299999999999  1.0000
  O   O1        1.0  0.25  0.25  0.4264  1.0000
  O   O2        1.0  0.75  0.75  0.5735999999999999  1.0000
  Li  Li1       1.0  0.75  0.25  0.4999999999999999  0.8250
  Li  Li2       1.0  0.25  0.75  0.49999999999999994  0.8250
  H   H1        1.0  0.25  0.25  0.32779999999999987  1.0000
  H   H2        1.0  0.75  0.75  0.6722000000000001  1.0000
  Fe  Fe3       1.0  0.75  0.25  0.4999999999999999  0.1750
  Fe  Fe4       1.0  0.25  0.75  0.49999999999999994  0.1750
