data_image0
_chemical_formula_structural       HgCu2I4
_chemical_formula_sum              "Hg1 Cu2 I4"
_cell_length_a       6.08
_cell_length_b       6.08
_cell_length_c       6.135
_cell_angle_alpha    90.0
_cell_angle_beta     90.0
_cell_angle_gamma    90.0

_space_group_name_H-M_alt    "P 1"
_space_group_IT_number       1

loop_
  _space_group_symop_operation_xyz
  'x, y, z'

loop_
  _atom_site_type_symbol
  _atom_site_label
  _atom_site_symmetry_multiplicity
  _atom_site_fract_x
  _atom_site_fract_y
  _atom_site_fract_z
  _atom_site_occupancy
  Hg  Hg1       1.0  0.0  0.0  0.0  1.0000
  Cu  Cu1       1.0  0.0  0.5  0.5  1.0000
  Cu  Cu2       1.0  0.5  0.0  0.5  1.0000
  I   I1        1.0  0.255  0.255  0.275  1.0000
  I   I2        1.0  0.7450000000000001  0.7450000000000001  0.275  1.0000
  I   I3        1.0  0.7450000000000001  0.255  0.725  1.0000
  I   I4        1.0  0.255  0.7450000000000001  0.725  1.0000
