data_image0
_chemical_formula_structural       Mo48P96O361
_chemical_formula_sum              "Mo48 P96 O361"
_cell_length_a       17.947
_cell_length_b       19.864
_cell_length_c       21.899
_cell_angle_alpha    72.421
_cell_angle_beta     78.174
_cell_angle_gamma    68.315

_space_group_name_H-M_alt    "P 1"
_space_group_IT_number       1

loop_
  _space_group_symop_operation_xyz
  'x, y, z'

loop_
  _atom_site_type_symbol
  _atom_site_label
  _atom_site_symmetry_multiplicity
  _atom_site_fract_x
  _atom_site_fract_y
  _atom_site_fract_z
  _atom_site_occupancy
  Mo  Mo1       1.0  0.5653000000000001  0.1743  0.67581  1.0000
  Mo  Mo2       1.0  0.4347  0.8257  0.32419  1.0000
  Mo  Mo3       1.0  0.18810000000000002  0.0827  0.83432  1.0000
  Mo  Mo4       1.0  0.8119  0.9173000000000001  0.16568000000000005  1.0000
  Mo  Mo5       1.0  0.5641000000000002  0.4969  0.673  1.0000
  Mo  Mo6       1.0  0.43589999999999984  0.5031000000000001  0.32699999999999996  1.0000
  Mo  Mo7       1.0  0.3134999999999999  0.12585000000000005  0.56726  1.0000
  Mo  Mo8       1.0  0.6865000000000001  0.8741500000000001  0.43274  1.0000
  Mo  Mo9       1.0  0.18599999999999997  0.4077  0.8281000000000001  1.0000
  Mo  Mo10      1.0  0.8140000000000001  0.5923000000000002  0.17189999999999994  1.0000
  Mo  Mo11      1.0  0.6854  0.5765  0.81631  1.0000
  Mo  Mo12      1.0  0.31460000000000016  0.4235  0.18369000000000002  1.0000
  Mo  Mo13      1.0  0.8123999999999999  0.24880000000000002  0.17607  1.0000
  Mo  Mo14      1.0  0.18760000000000018  0.7512  0.8239299999999999  1.0000
  Mo  Mo15      1.0  0.8158  0.9578  0.57414  1.0000
  Mo  Mo16      1.0  0.18420000000000006  0.04219999999999998  0.42586000000000007  1.0000
  Mo  Mo17      1.0  0.9393  0.32770000000000005  0.31883  1.0000
  Mo  Mo18      1.0  0.060699999999999955  0.6722999999999999  0.68117  1.0000
  Mo  Mo19      1.0  0.43300000000000005  0.45870000000000005  0.9226299999999998  1.0000
  Mo  Mo20      1.0  0.567  0.5413  0.07737000000000016  1.0000
  Mo  Mo21      1.0  0.06619999999999997  0.34022  0.66936  1.0000
  Mo  Mo22      1.0  0.9338000000000002  0.65978  0.33064000000000004  1.0000
  Mo  Mo23      1.0  0.6856  0.2502  0.83271  1.0000
  Mo  Mo24      1.0  0.3144  0.7498  0.16729000000000005  1.0000
  Mo  Mo25      1.0  0.9349000000000001  0.6221300000000001  0.91452  1.0000
  Mo  Mo26      1.0  0.06509999999999992  0.37786999999999993  0.08548  1.0000
  Mo  Mo27      1.0  0.9384000000000001  0.29690000000000005  0.9351  1.0000
  Mo  Mo28      1.0  0.061599999999999974  0.7031000000000001  0.06489999999999996  1.0000
  Mo  Mo29      1.0  0.6908  0.9128000000000001  0.83087  1.0000
  Mo  Mo30      1.0  0.30920000000000003  0.0872  0.16913  1.0000
  Mo  Mo31      1.0  0.06269999999999996  0.004100000000000002  0.6768  1.0000
  Mo  Mo32      1.0  0.9373000000000001  0.9959  0.32320000000000004  1.0000
  Mo  Mo33      1.0  0.9345000000000001  0.9732000000000001  0.9162  1.0000
  Mo  Mo34      1.0  0.06549999999999989  0.026800000000000036  0.08379999999999999  1.0000
  Mo  Mo35      1.0  0.4413999999999999  0.1572  0.3228  1.0000
  Mo  Mo36      1.0  0.5586000000000002  0.8428  0.6772  1.0000
  Mo  Mo37      1.0  0.684  0.2189  0.41189  1.0000
  Mo  Mo38      1.0  0.31599999999999995  0.7811000000000001  0.58811  1.0000
  Mo  Mo39      1.0  0.43520000000000003  0.7972999999999999  0.90986  1.0000
  Mo  Mo40      1.0  0.5648  0.2027  0.09014  1.0000
  Mo  Mo41      1.0  0.1882000000000001  0.38739999999999997  0.4195  1.0000
  Mo  Mo42      1.0  0.8117999999999997  0.6126  0.5805  1.0000
  Mo  Mo43      1.0  0.8131  0.2844999999999999  0.5702  1.0000
  Mo  Mo44      1.0  0.1869  0.7155  0.42979999999999996  1.0000
  Mo  Mo45      1.0  0.3121000000000001  0.44217000000000006  0.57021  1.0000
  Mo  Mo46      1.0  0.6879000000000002  0.5578299999999999  0.42979  1.0000
  Mo  Mo47      1.0  0.4407  0.12830000000000003  0.9349799999999999  1.0000
  Mo  Mo48      1.0  0.5593000000000001  0.8716999999999999  0.06502000000000008  1.0000
  P   P1        1.0  0.9858000000000001  0.06290000000000001  0.438  1.0000
  P   P2        1.0  0.014199999999999902  0.9371  0.562  1.0000
  P   P3        1.0  0.2603000000000001  0.6816  0.058799999999999956  1.0000
  P   P4        1.0  0.7397  0.3183999999999999  0.9412000000000001  1.0000
  P   P5        1.0  0.01130000000000007  0.2711  0.5639  1.0000
  P   P6        1.0  0.9886999999999999  0.7289000000000001  0.43610000000000004  1.0000
  P   P7        1.0  0.7384  0.6396999999999999  0.9332  1.0000
  P   P8        1.0  0.26160000000000005  0.3603  0.06679999999999997  1.0000
  P   P9        1.0  0.2383000000000001  0.4753999999999999  0.9331000000000002  1.0000
  P   P10       1.0  0.7617  0.5246000000000002  0.06689999999999985  1.0000
  P   P11       1.0  0.3626  0.9515999999999999  0.6874  1.0000
  P   P12       1.0  0.6374000000000001  0.04839999999999999  0.3126  1.0000
  P   P13       1.0  0.007500000000000019  0.5348  0.7923000000000001  1.0000
  P   P14       1.0  0.9925  0.46519999999999995  0.20769999999999988  1.0000
  P   P15       1.0  0.5115  0.04979999999999996  0.8069  1.0000
  P   P16       1.0  0.48849999999999993  0.9502000000000002  0.19310000000000005  1.0000
  P   P17       1.0  0.6199999999999999  0.12840000000000004  0.9594999999999999  1.0000
  P   P18       1.0  0.3800000000000001  0.8716  0.04050000000000009  1.0000
  P   P19       1.0  0.24010000000000012  0.8143  0.9386  1.0000
  P   P20       1.0  0.7599  0.18570000000000003  0.06140000000000001  1.0000
  P   P21       1.0  0.2387  0.20419999999999996  0.6933  1.0000
  P   P22       1.0  0.7613000000000001  0.7958000000000001  0.3067  1.0000
  P   P23       1.0  0.5122000000000001  0.10360000000000001  0.5596  1.0000
  P   P24       1.0  0.4877999999999999  0.8964  0.44040000000000007  1.0000
  P   P25       1.0  0.8845  0.3767  0.06189999999999999  1.0000
  P   P26       1.0  0.1155  0.6233000000000001  0.9381  1.0000
  P   P27       1.0  0.11530000000000004  0.2985  0.9552999999999999  1.0000
  P   P28       1.0  0.8846999999999999  0.7015  0.04470000000000007  1.0000
  P   P29       1.0  0.1314  0.1279  0.5498  1.0000
  P   P30       1.0  0.8686000000000003  0.8720999999999998  0.45020000000000004  1.0000
  P   P31       1.0  0.4909  0.2224  0.4375  1.0000
  P   P32       1.0  0.5091000000000001  0.7776000000000001  0.5625  1.0000
  P   P33       1.0  0.8871000000000001  0.46360000000000007  0.8179  1.0000
  P   P34       1.0  0.11289999999999997  0.5364  0.18210000000000004  1.0000
  P   P35       1.0  0.5027000000000003  0.3782  0.7976  1.0000
  P   P36       1.0  0.49729999999999985  0.6218  0.20240000000000002  1.0000
  P   P37       1.0  0.7451999999999996  0.9800000000000001  0.9409  1.0000
  P   P38       1.0  0.2548  0.01999999999999997  0.05910000000000004  1.0000
  P   P39       1.0  0.7542  0.1265  0.2898  1.0000
  P   P40       1.0  0.24579999999999996  0.8734999999999999  0.7101999999999999  1.0000
  P   P41       1.0  0.5105000000000002  0.4307000000000001  0.561  1.0000
  P   P42       1.0  0.48950000000000005  0.5692999999999999  0.4389999999999999  1.0000
  P   P43       1.0  0.2384  0.1522  0.9461  1.0000
  P   P44       1.0  0.7616  0.8478000000000001  0.05389999999999995  1.0000
  P   P45       1.0  0.7435999999999999  0.038599999999999995  0.6995  1.0000
  P   P46       1.0  0.2564000000000001  0.9613999999999998  0.3005  1.0000
  P   P47       1.0  0.23680000000000004  0.5398  0.6895  1.0000
  P   P48       1.0  0.7632000000000002  0.46020000000000005  0.3105  1.0000
  P   P49       1.0  0.6109000000000001  0.7935000000000001  0.9352  1.0000
  P   P50       1.0  0.38909999999999995  0.2065  0.06479999999999997  1.0000
  P   P51       1.0  0.6300000000000001  0.29119999999999996  0.5412  1.0000
  P   P52       1.0  0.36999999999999983  0.7088000000000002  0.4588  1.0000
  P   P53       1.0  0.8603999999999999  0.7858000000000002  0.6891  1.0000
  P   P54       1.0  0.13959999999999992  0.21420000000000003  0.31089999999999995  1.0000
  P   P55       1.0  0.005700000000000017  0.2212  0.8054  1.0000
  P   P56       1.0  0.9943000000000001  0.7787999999999999  0.19460000000000002  1.0000
  P   P57       1.0  0.6346  0.9638  0.5598  1.0000
  P   P58       1.0  0.36540000000000006  0.036199999999999996  0.44020000000000004  1.0000
  P   P59       1.0  0.007100000000000109  0.8823  0.8022  1.0000
  P   P60       1.0  0.9929  0.11770000000000004  0.19779999999999995  1.0000
  P   P61       1.0  0.6148000000000002  0.3651  0.1868  1.0000
  P   P62       1.0  0.38519999999999993  0.6349  0.8132  1.0000
  P   P63       1.0  0.5140999999999999  0.7038999999999999  0.8017  1.0000
  P   P64       1.0  0.48590000000000005  0.29610000000000003  0.19830000000000003  1.0000
  P   P65       1.0  0.13219999999999998  0.4554000000000001  0.5495  1.0000
  P   P66       1.0  0.8678000000000001  0.5446  0.4505  1.0000
  P   P67       1.0  0.8643999999999998  0.1167  0.6867  1.0000
  P   P68       1.0  0.13560000000000008  0.8833000000000001  0.3133  1.0000
  P   P69       1.0  0.8670000000000001  0.4308  0.6916  1.0000
  P   P70       1.0  0.133  0.5691999999999999  0.3084  1.0000
  P   P71       1.0  0.38200000000000006  0.5418  0.05139999999999989  1.0000
  P   P72       1.0  0.6180000000000001  0.45820000000000005  0.9486  1.0000
  P   P73       1.0  0.7429000000000001  0.36839999999999995  0.696  1.0000
  P   P74       1.0  0.2570999999999999  0.6316  0.30400000000000005  1.0000
  P   P75       1.0  0.9891000000000001  0.39309999999999995  0.43389999999999995  1.0000
  P   P76       1.0  0.010899999999999894  0.6069  0.5661  1.0000
  P   P77       1.0  0.2577  0.2895  0.2913  1.0000
  P   P78       1.0  0.7423  0.7105  0.7087  1.0000
  P   P79       1.0  0.8665999999999999  0.20789999999999997  0.44250000000000006  1.0000
  P   P80       1.0  0.13340000000000007  0.7921000000000001  0.5574999999999999  1.0000
  P   P81       1.0  0.8831000000000003  0.15429999999999996  0.8033000000000001  1.0000
  P   P82       1.0  0.11689999999999974  0.8457000000000001  0.19669999999999987  1.0000
  P   P83       1.0  0.3851000000000001  0.30600000000000005  0.8132  1.0000
  P   P84       1.0  0.6149000000000001  0.694  0.18679999999999997  1.0000
  P   P85       1.0  0.6351  0.40330000000000016  0.3029  1.0000
  P   P86       1.0  0.3649  0.5967  0.6971  1.0000
  P   P87       1.0  0.38149999999999984  0.9816  0.8076  1.0000
  P   P88       1.0  0.6185  0.018399999999999986  0.19240000000000002  1.0000
  P   P89       1.0  0.36580000000000007  0.2751  0.6877  1.0000
  P   P90       1.0  0.6342000000000001  0.7249  0.3123  1.0000
  P   P91       1.0  0.3661000000000001  0.3747000000000001  0.44439999999999996  1.0000
  P   P92       1.0  0.6338999999999998  0.6253  0.5556000000000001  1.0000
  P   P93       1.0  0.11970000000000004  0.9611  0.9551  1.0000
  P   P94       1.0  0.8803  0.03890000000000002  0.04490000000000005  1.0000
  P   P95       1.0  0.8836  0.8096000000000001  0.8157  1.0000
  P   P96       1.0  0.11639999999999995  0.19039999999999999  0.18430000000000002  1.0000
  O   O1        1.0  0.19600000000000004  0.1343  0.5794  1.0000
  O   O2        1.0  0.8039999999999999  0.8657000000000001  0.4206  1.0000
  O   O3        1.0  0.8099000000000001  0.28430000000000005  0.23610000000000003  1.0000
  O   O4        1.0  0.19010000000000007  0.7157  0.7639  1.0000
  O   O5        1.0  0.9255  0.3142  0.2523  1.0000
  O   O6        1.0  0.07449999999999997  0.6858  0.7477  1.0000
  O   O7        1.0  0.20190000000000002  0.2999  0.4611  1.0000
  O   O8        1.0  0.7981000000000001  0.7001  0.5388999999999999  1.0000
  O   O9        1.0  0.6961  0.9802  0.5854  1.0000
  O   O10       1.0  0.3038999999999998  0.019800000000000016  0.41459999999999997  1.0000
  O   O11       1.0  0.43850000000000006  0.13989999999999997  0.254  1.0000
  O   O12       1.0  0.5614999999999999  0.8601000000000001  0.746  1.0000
  O   O13       1.0  0.43599999999999994  0.7255  0.9724  1.0000
  O   O14       1.0  0.5640000000000001  0.2745  0.027599999999999954  1.0000
  O   O15       1.0  0.9291000000000001  0.2666  0.5716  1.0000
  O   O16       1.0  0.07089999999999982  0.7334000000000002  0.4284  1.0000
  O   O17       1.0  0.45620000000000016  0.5477000000000001  0.06709999999999994  1.0000
  O   O18       1.0  0.5437999999999998  0.4523  0.9329000000000001  1.0000
  O   O19       1.0  0.18009999999999998  0.671  0.08370000000000011  1.0000
  O   O20       1.0  0.8199  0.329  0.9162999999999999  1.0000
  O   O21       1.0  0.09580000000000014  0.06760000000000001  0.5886  1.0000
  O   O22       1.0  0.9041999999999999  0.9324000000000001  0.4114  1.0000
  O   O23       1.0  0.18340000000000004  0.2758999999999999  0.6566  1.0000
  O   O24       1.0  0.8166000000000001  0.7241000000000001  0.34340000000000004  1.0000
  O   O25       1.0  0.31700000000000006  0.16820000000000002  0.9316999999999999  1.0000
  O   O26       1.0  0.683  0.8318  0.06830000000000014  1.0000
  O   O27       1.0  0.5649000000000001  0.3093  0.8323  1.0000
  O   O28       1.0  0.4351  0.6907000000000001  0.16769999999999996  1.0000
  O   O29       1.0  0.9369  0.9084  0.9860000000000001  1.0000
  O   O30       1.0  0.06310000000000006  0.09160000000000004  0.013999999999999901  1.0000
  O   O31       1.0  0.4598  0.18080000000000002  0.4088  1.0000
  O   O32       1.0  0.5401999999999999  0.8191999999999999  0.5912  1.0000
  O   O33       1.0  0.6790000000000002  0.10119999999999998  0.6625  1.0000
  O   O34       1.0  0.32099999999999984  0.8988000000000002  0.3375  1.0000
  O   O35       1.0  0.6862999999999999  0.8602  0.7871  1.0000
  O   O36       1.0  0.3137  0.1398  0.2129  1.0000
  O   O37       1.0  0.8015  0.07300000000000001  0.7169  1.0000
  O   O38       1.0  0.19850000000000004  0.927  0.2831  1.0000
  O   O39       1.0  0.6800999999999999  0.4318000000000001  0.6572  1.0000
  O   O40       1.0  0.31990000000000013  0.5681999999999999  0.3428  1.0000
  O   O41       1.0  0.5691  0.03909999999999999  0.526  1.0000
  O   O42       1.0  0.4308999999999999  0.9609  0.474  1.0000
  O   O43       1.0  0.7003  0.27949999999999997  0.5753  1.0000
  O   O44       1.0  0.29969999999999997  0.7205  0.4247  1.0000
  O   O45       1.0  0.06859999999999995  0.1475  0.8314000000000001  1.0000
  O   O46       1.0  0.9314000000000001  0.8525  0.16859999999999986  1.0000
  O   O47       1.0  0.45230000000000004  0.7646  0.8298  1.0000
  O   O48       1.0  0.5477000000000001  0.23540000000000003  0.17020000000000002  1.0000
  O   O49       1.0  0.06710000000000003  0.466  0.827  1.0000
  O   O50       1.0  0.9329000000000001  0.534  0.17300000000000004  1.0000
  O   O51       1.0  0.5588  0.534  0.7321  1.0000
  O   O52       1.0  0.44120000000000004  0.466  0.2679  1.0000
  O   O53       1.0  0.1879000000000001  0.0319  0.7873  1.0000
  O   O54       1.0  0.8121  0.9681000000000001  0.2127  1.0000
  O   O55       1.0  0.7042  0.6068000000000001  0.8976  1.0000
  O   O56       1.0  0.29579999999999995  0.39320000000000005  0.10240000000000006  1.0000
  O   O57       1.0  0.43629999999999997  0.08510000000000002  0.569  1.0000
  O   O58       1.0  0.5637000000000003  0.9148999999999999  0.43100000000000005  1.0000
  O   O59       1.0  0.1957  0.7935000000000001  0.9007000000000001  1.0000
  O   O60       1.0  0.8043  0.20650000000000004  0.09929999999999993  1.0000
  O   O61       1.0  0.7174  0.1844000000000001  0.3286  1.0000
  O   O62       1.0  0.28259999999999996  0.8156  0.6714  1.0000
  O   O63       1.0  0.6947999999999999  0.5284  0.7641  1.0000
  O   O64       1.0  0.3052  0.4716000000000001  0.2359  1.0000
  O   O65       1.0  0.9927  0.3471000000000001  0.5084  1.0000
  O   O66       1.0  0.0072999999999999645  0.6528999999999999  0.4916000000000001  1.0000
  O   O67       1.0  0.9224  0.07440000000000002  0.8393  1.0000
  O   O68       1.0  0.07760000000000007  0.9255999999999999  0.16069999999999995  1.0000
  O   O69       1.0  0.0704  0.5385  0.5367  1.0000
  O   O70       1.0  0.9296  0.4615  0.46330000000000005  1.0000
  O   O71       1.0  0.41609999999999997  0.2346999999999999  0.8624000000000002  1.0000
  O   O72       1.0  0.5839000000000002  0.7653000000000001  0.13759999999999983  1.0000
  O   O73       1.0  0.3415  0.509  0.11579999999999989  1.0000
  O   O74       1.0  0.6585  0.491  0.8842000000000001  1.0000
  O   O75       1.0  0.33039999999999997  0.6266  0.02289999999999992  1.0000
  O   O76       1.0  0.6696000000000001  0.3733999999999999  0.9771000000000001  1.0000
  O   O77       1.0  0.9636  0.35029999999999994  0.40230000000000005  1.0000
  O   O78       1.0  0.0364000000000001  0.6496999999999999  0.5976999999999999  1.0000
  O   O79       1.0  0.9538  0.4966999999999999  0.7752000000000001  1.0000
  O   O80       1.0  0.04620000000000009  0.5033000000000001  0.2247999999999999  1.0000
  O   O81       1.0  0.3182  0.5247  0.5275  1.0000
  O   O82       1.0  0.6818000000000001  0.47529999999999994  0.4725  1.0000
  O   O83       1.0  0.30789999999999995  0.9026000000000001  0.7278  1.0000
  O   O84       1.0  0.6921  0.09739999999999999  0.2722  1.0000
  O   O85       1.0  0.16419999999999998  0.015099999999999997  0.9206  1.0000
  O   O86       1.0  0.8358000000000001  0.9849  0.07940000000000003  1.0000
  O   O87       1.0  0.2014  0.1414  0.8967  1.0000
  O   O88       1.0  0.7985999999999999  0.8586  0.10329999999999996  1.0000
  O   O89       1.0  0.46349999999999997  0.0804  0.8630000000000001  1.0000
  O   O90       1.0  0.5365  0.9196000000000001  0.1369999999999999  1.0000
  O   O91       1.0  0.07060000000000023  0.03010000000000002  0.7391  1.0000
  O   O92       1.0  0.9293999999999998  0.9699000000000001  0.2609  1.0000
  O   O93       1.0  0.19600000000000004  0.4784  0.8806  1.0000
  O   O94       1.0  0.8039999999999999  0.5216000000000001  0.11939999999999994  1.0000
  O   O95       1.0  0.3161  0.3424  0.6449  1.0000
  O   O96       1.0  0.6839  0.6576  0.35509999999999997  1.0000
  O   O97       1.0  0.8062000000000002  0.9925  0.6591  1.0000
  O   O98       1.0  0.19379999999999997  0.007499999999999988  0.3409  1.0000
  O   O99       1.0  0.5810999999999998  0.5814  0.5974  1.0000
  O   O100      1.0  0.41890000000000016  0.41859999999999997  0.40259999999999996  1.0000
  O   O101      1.0  0.9615000000000001  0.5912  0.8308  1.0000
  O   O102      1.0  0.038499999999999875  0.40879999999999994  0.16920000000000002  1.0000
  O   O103      1.0  0.06689999999999995  0.2091  0.5265  1.0000
  O   O104      1.0  0.9331  0.7909  0.4735000000000001  1.0000
  O   O105      1.0  0.264  0.7440999999999999  0.9955  1.0000
  O   O106      1.0  0.736  0.2559  0.0044999999999999485  1.0000
  O   O107      1.0  0.6844000000000002  0.1331  0.4545  1.0000
  O   O108      1.0  0.3155999999999999  0.8669000000000001  0.5455  1.0000
  O   O109      1.0  0.06890000000000003  0.4067  0.4167  1.0000
  O   O110      1.0  0.9310999999999999  0.5932999999999999  0.5832999999999999  1.0000
  O   O111      1.0  0.7763000000000003  0.31290000000000007  0.6545  1.0000
  O   O112      1.0  0.22369999999999973  0.6871  0.34550000000000003  1.0000
  O   O113      1.0  0.4027  0.4988  0.0015000000000000568  1.0000
  O   O114      1.0  0.5972999999999999  0.5012  0.9985  1.0000
  O   O115      1.0  0.46009999999999995  0.24980000000000002  0.2611  1.0000
  O   O116      1.0  0.5399  0.7502000000000001  0.7389  1.0000
  O   O117      1.0  0.18449999999999997  0.22069999999999998  0.9754000000000002  1.0000
  O   O118      1.0  0.8154999999999999  0.7793000000000001  0.024599999999999848  1.0000
  O   O119      1.0  0.19639999999999985  0.8039000000000002  0.5849  1.0000
  O   O120      1.0  0.8036000000000001  0.19609999999999994  0.4151  1.0000
  O   O121      1.0  0.5772  0.9292  0.6086  1.0000
  O   O122      1.0  0.42279999999999995  0.07080000000000002  0.39139999999999997  1.0000
  O   O123      1.0  0.5848000000000001  0.23770000000000002  0.5813  1.0000
  O   O124      1.0  0.4151999999999999  0.7623  0.4187  1.0000
  O   O125      1.0  0.1566  0.4872000000000001  0.3404  1.0000
  O   O126      1.0  0.8434  0.5127999999999999  0.6596  1.0000
  O   O127      1.0  0.9175  0.41050000000000003  0.8792  1.0000
  O   O128      1.0  0.08250000000000002  0.5894999999999999  0.1208  1.0000
  O   O129      1.0  0.8277000000000001  0.3351  0.1018  1.0000
  O   O130      1.0  0.17229999999999981  0.6649  0.8982000000000001  1.0000
  O   O131      1.0  0.5542  0.3191  0.2129  1.0000
  O   O132      1.0  0.4458000000000001  0.6809000000000001  0.7871  1.0000
  O   O133      1.0  0.8231999999999998  0.17359999999999998  0.6308  1.0000
  O   O134      1.0  0.17680000000000018  0.8264  0.3692  1.0000
  O   O135      1.0  0.17099999999999999  0.3258000000000001  0.9  1.0000
  O   O136      1.0  0.8290000000000002  0.6741999999999998  0.09999999999999998  1.0000
  O   O137      1.0  0.5531000000000001  0.7858999999999998  0.9004000000000001  1.0000
  O   O138      1.0  0.44689999999999996  0.2141000000000001  0.09959999999999991  1.0000
  O   O139      1.0  0.5585000000000001  0.22309999999999997  0.7265  1.0000
  O   O140      1.0  0.44149999999999984  0.7769  0.27349999999999997  1.0000
  O   O141      1.0  0.9442  0.04150000000000001  0.3983  1.0000
  O   O142      1.0  0.05579999999999995  0.9585000000000001  0.6017  1.0000
  O   O143      1.0  0.17099999999999996  0.5386000000000001  0.9629999999999999  1.0000
  O   O144      1.0  0.8290000000000002  0.4613999999999999  0.037000000000000144  1.0000
  O   O145      1.0  0.0663  0.40440000000000004  0.7027  1.0000
  O   O146      1.0  0.9337000000000001  0.5955999999999999  0.2973  1.0000
  O   O147      1.0  0.8215000000000002  0.9856  0.8997  1.0000
  O   O148      1.0  0.17849999999999988  0.01439999999999998  0.10029999999999994  1.0000
  O   O149      1.0  0.1748  0.34980000000000006  0.7932  1.0000
  O   O150      1.0  0.8252  0.6501999999999999  0.20679999999999998  1.0000
  O   O151      1.0  0.6946000000000001  0.9673  0.9022  1.0000
  O   O152      1.0  0.3054  0.03270000000000004  0.0978  1.0000
  O   O153      1.0  0.4402  0.3007  0.4521  1.0000
  O   O154      1.0  0.5598000000000002  0.6993000000000001  0.5479  1.0000
  O   O155      1.0  0.08640000000000005  0.7582  0.6165  1.0000
  O   O156      1.0  0.9136  0.24180000000000001  0.38349999999999995  1.0000
  O   O157      1.0  0.7979000000000004  0.14889999999999998  0.22430000000000003  1.0000
  O   O158      1.0  0.20209999999999978  0.8511  0.7757  1.0000
  O   O159      1.0  0.2857000000000002  0.3281  0.2246  1.0000
  O   O160      1.0  0.7142999999999998  0.6719  0.7754  1.0000
  O   O161      1.0  0.4324  0.4152  0.5871  1.0000
  O   O162      1.0  0.5675999999999999  0.5848  0.41290000000000004  1.0000
  O   O163      1.0  0.5374  0.11809999999999998  0.6146  1.0000
  O   O164      1.0  0.46260000000000007  0.8819000000000001  0.38539999999999996  1.0000
  O   O165      1.0  0.5709000000000001  0.9731000000000001  0.8295  1.0000
  O   O166      1.0  0.42909999999999987  0.026900000000000004  0.17049999999999998  1.0000
  O   O167      1.0  0.6938000000000001  0.0531  0.9645  1.0000
  O   O168      1.0  0.3061999999999999  0.9469  0.035499999999999976  1.0000
  O   O169      1.0  0.21999999999999997  0.3345000000000001  0.3426  1.0000
  O   O170      1.0  0.78  0.6655  0.6574  1.0000
  O   O171      1.0  0.18139999999999998  0.9377  0.6742  1.0000
  O   O172      1.0  0.8185999999999999  0.0623  0.3258  1.0000
  O   O173      1.0  0.16010000000000008  0.8827  0.9379  1.0000
  O   O174      1.0  0.8399000000000001  0.1173  0.062100000000000044  1.0000
  O   O175      1.0  0.9726000000000001  0.42040000000000005  0.2753  1.0000
  O   O176      1.0  0.027399999999999848  0.5795999999999999  0.7247  1.0000
  O   O177      1.0  0.30110000000000003  0.39019999999999994  0.4038  1.0000
  O   O178      1.0  0.6989  0.6098000000000001  0.5962000000000001  1.0000
  O   O179      1.0  0.17240000000000036  0.7820999999999999  0.4918  1.0000
  O   O180      1.0  0.8275999999999998  0.2179  0.5082  1.0000
  O   O181      1.0  0.9528000000000001  0.2640000000000001  0.8535999999999999  1.0000
  O   O182      1.0  0.04719999999999998  0.736  0.14640000000000009  1.0000
  O   O183      1.0  0.5584000000000002  0.11780000000000002  0.9294  1.0000
  O   O184      1.0  0.44159999999999994  0.8822  0.0706  1.0000
  O   O185      1.0  0.6517999999999999  0.852  0.9162  1.0000
  O   O186      1.0  0.34819999999999995  0.14800000000000002  0.08379999999999999  1.0000
  O   O187      1.0  0.11129999999999998  0.9521000000000001  0.026499999999999968  1.0000
  O   O188      1.0  0.8887  0.04789999999999996  0.9735  1.0000
  O   O189      1.0  0.2089  0.15090000000000006  0.7486  1.0000
  O   O190      1.0  0.7911000000000001  0.8490999999999999  0.25139999999999996  1.0000
  O   O191      1.0  0.3127000000000001  0.8344  0.9029999999999999  1.0000
  O   O192      1.0  0.6873  0.16559999999999997  0.09700000000000009  1.0000
  O   O193      1.0  0.06280000000000019  0.0809  0.4199  1.0000
  O   O194      1.0  0.9371999999999998  0.9190999999999999  0.5801000000000001  1.0000
  O   O195      1.0  0.5487  0.43339999999999995  0.6143  1.0000
  O   O196      1.0  0.4513  0.5666  0.3857000000000001  1.0000
  O   O197      1.0  0.46310000000000007  0.4308  0.8396999999999999  1.0000
  O   O198      1.0  0.5369  0.5691999999999999  0.1603000000000001  1.0000
  O   O199      1.0  0.17619999999999983  0.6122000000000002  0.6583  1.0000
  O   O200      1.0  0.8238000000000001  0.38779999999999987  0.3417  1.0000
  O   O201      1.0  0.04370000000000006  0.9830000000000002  0.9234000000000001  1.0000
  O   O202      1.0  0.9562999999999999  0.017000000000000005  0.07659999999999989  1.0000
  O   O203      1.0  0.08449999999999995  0.4020000000000002  0.5767  1.0000
  O   O204      1.0  0.9155000000000001  0.5979999999999999  0.42330000000000007  1.0000
  O   O205      1.0  0.31610000000000005  0.49000000000000005  0.9055  1.0000
  O   O206      1.0  0.6839  0.51  0.09450000000000003  1.0000
  O   O207      1.0  0.9619000000000001  0.5425000000000001  0.9699  1.0000
  O   O208      1.0  0.03809999999999991  0.4575  0.030100000000000012  1.0000
  O   O209      1.0  0.435  0.05440000000000001  0.992  1.0000
  O   O210      1.0  0.5649999999999998  0.9456000000000001  0.008000000000000007  1.0000
  O   O211      1.0  0.8291  0.8477  0.6308  1.0000
  O   O212      1.0  0.17089999999999994  0.15230000000000002  0.3692  1.0000
  O   O213      1.0  0.6442000000000002  0.19359999999999994  0.9185000000000001  1.0000
  O   O214      1.0  0.3557999999999998  0.8064  0.0814999999999999  1.0000
  O   O215      1.0  0.6061999999999999  0.4113000000000001  0.237  1.0000
  O   O216      1.0  0.3938000000000002  0.5887  0.763  1.0000
  O   O217      1.0  0.29059999999999997  0.4831  0.6518  1.0000
  O   O218      1.0  0.7093999999999999  0.5169  0.34819999999999995  1.0000
  O   O219      1.0  0.5098999999999999  0.18150000000000005  0.5101  1.0000
  O   O220      1.0  0.4901  0.8185  0.48989999999999995  1.0000
  O   O221      1.0  0.30369999999999997  0.34600000000000003  0.8435999999999999  1.0000
  O   O222      1.0  0.6963000000000001  0.6539999999999999  0.1564000000000001  1.0000
  O   O223      1.0  0.44540000000000013  0.2227  0.6687  1.0000
  O   O224      1.0  0.5546000000000001  0.7772999999999999  0.33130000000000004  1.0000
  O   O225      1.0  0.4117  0.18249999999999997  0.0033000000000000806  1.0000
  O   O226      1.0  0.5883  0.8175  0.9966999999999999  1.0000
  O   O227      1.0  0.8859  0.4388  0.7562  1.0000
  O   O228      1.0  0.11410000000000002  0.5611999999999999  0.24380000000000002  1.0000
  O   O229      1.0  0.339  0.07280000000000002  0.4956  1.0000
  O   O230      1.0  0.661  0.9272000000000001  0.5044  1.0000
  O   O231      1.0  0.1919  0.4599  0.5853  1.0000
  O   O232      1.0  0.8081  0.5401  0.41469999999999996  1.0000
  O   O233      1.0  0.9233000000000001  0.12540000000000004  0.47  1.0000
  O   O234      1.0  0.0766999999999999  0.8745999999999999  0.53  1.0000
  O   O235      1.0  0.34160000000000007  0.36909999999999993  0.5153  1.0000
  O   O236      1.0  0.6583999999999999  0.6309000000000001  0.4847  1.0000
  O   O237      1.0  0.9252000000000001  0.7309  0.8493  1.0000
  O   O238      1.0  0.07479999999999987  0.2691  0.15069999999999995  1.0000
  O   O239      1.0  0.8361000000000001  0.8938000000000001  0.5128  1.0000
  O   O240      1.0  0.1638999999999999  0.10620000000000003  0.48719999999999997  1.0000
  O   O241      1.0  0.5703  0.2267  0.3998  1.0000
  O   O242      1.0  0.42969999999999997  0.7733  0.6002000000000001  1.0000
  O   O243      1.0  0.9251  0.3383  0.009100000000000108  1.0000
  O   O244      1.0  0.07490000000000012  0.6616999999999998  0.9908999999999999  1.0000
  O   O245      1.0  0.1669  0.453  0.48090000000000005  1.0000
  O   O246      1.0  0.8331  0.5469999999999999  0.5190999999999999  1.0000
  O   O247      1.0  0.5368000000000002  0.40460000000000007  0.7297  1.0000
  O   O248      1.0  0.46319999999999983  0.5953999999999999  0.2703  1.0000
  O   O249      1.0  0.7643  0.9263000000000001  0.009200000000000097  1.0000
  O   O250      1.0  0.23569999999999988  0.0737  0.9907999999999999  1.0000
  O   O251      1.0  0.9252000000000001  0.1795  0.164  1.0000
  O   O252      1.0  0.07479999999999984  0.8205000000000001  0.836  1.0000
  O   O253      1.0  0.4257999999999999  0.9104000000000001  0.8511  1.0000
  O   O254      1.0  0.5742  0.08960000000000004  0.14890000000000003  1.0000
  O   O255      1.0  0.8092  0.20339999999999997  0.8349000000000001  1.0000
  O   O256      1.0  0.19079999999999994  0.7966  0.1650999999999999  1.0000
  O   O257      1.0  0.6681000000000002  0.7096000000000001  0.9495000000000001  1.0000
  O   O258      1.0  0.33189999999999986  0.2904  0.05049999999999988  1.0000
  O   O259      1.0  0.8122000000000001  0.6628000000000001  0.9053000000000001  1.0000
  O   O260      1.0  0.18779999999999988  0.33720000000000006  0.0946999999999999  1.0000
  O   O261      1.0  0.5718  0.3752  0.5195  1.0000
  O   O262      1.0  0.4282000000000001  0.6248  0.48050000000000004  1.0000
  O   O263      1.0  0.9072  0.6727000000000001  0.9858  1.0000
  O   O264      1.0  0.0928  0.3273  0.014199999999999989  1.0000
  O   O265      1.0  0.667  0.3228  0.3368  1.0000
  O   O266      1.0  0.333  0.6771999999999999  0.6632  1.0000
  O   O267      1.0  0.5  0.5  0.5  1.0000
  O   O268      1.0  0.5737999999999999  0.6400000000000001  0.8412  1.0000
  O   O269      1.0  0.4262  0.36000000000000004  0.15880000000000005  1.0000
  O   O270      1.0  0.9405000000000001  0.05570000000000002  0.6718  1.0000
  O   O271      1.0  0.05949999999999995  0.9442999999999999  0.32820000000000005  1.0000
  O   O272      1.0  0.31849999999999995  0.21890000000000004  0.3264  1.0000
  O   O273      1.0  0.6815  0.7810999999999999  0.6736  1.0000
  O   O274      1.0  0.7151  0.3354000000000001  0.7641  1.0000
  O   O275      1.0  0.28489999999999993  0.6646000000000001  0.2359  1.0000
  O   O276      1.0  0.9465999999999999  0.3976  0.6551  1.0000
  O   O277      1.0  0.053399999999999996  0.6024000000000002  0.3449  1.0000
  O   O278      1.0  0.013300000000000083  0.019800000000000016  0.5079  0.5000
  O   O279      1.0  0.9867  0.9802  0.4921  0.5000
  O   O280      1.0  0.7067000000000003  0.002200000000000023  0.7628  1.0000
  O   O281      1.0  0.2932999999999999  0.9978000000000001  0.23719999999999997  1.0000
  O   O282      1.0  0.8082000000000001  0.38350000000000006  0.7229  1.0000
  O   O283      1.0  0.19179999999999994  0.6164999999999999  0.2771  1.0000
  O   O284      1.0  0.7849000000000002  0.364  0.5145  1.0000
  O   O285      1.0  0.21509999999999982  0.636  0.48550000000000004  1.0000
  O   O286      1.0  0.8800000000000002  0.806  0.7459  1.0000
  O   O287      1.0  0.11999999999999987  0.194  0.2541  1.0000
  O   O288      1.0  0.043699999999999996  0.2525  0.7403  1.0000
  O   O289      1.0  0.9563000000000001  0.7475  0.25970000000000004  1.0000
  O   O290      1.0  0.41409999999999997  0.8568000000000001  0.9752  1.0000
  O   O291      1.0  0.5859  0.1432  0.024800000000000044  1.0000
  O   O292      1.0  0.8615  0.1618  0.7351  1.0000
  O   O293      1.0  0.1385  0.8382  0.2649  1.0000
  O   O294      1.0  0.5474999999999999  0.09810000000000002  0.7529  1.0000
  O   O295      1.0  0.4525000000000002  0.9018999999999999  0.2471  1.0000
  O   O296      1.0  0.3113000000000001  0.035500000000000004  0.8389  1.0000
  O   O297      1.0  0.6886999999999998  0.9645  0.16110000000000002  1.0000
  O   O298      1.0  0.44439999999999996  0.5608  0.6621  1.0000
  O   O299      1.0  0.5556000000000001  0.43920000000000003  0.3379  1.0000
  O   O300      1.0  0.21729999999999994  0.4856000000000001  0.7508  1.0000
  O   O301      1.0  0.7827000000000001  0.5144  0.24919999999999998  1.0000
  O   O302      1.0  0.4352  0.37159999999999993  0.9578  1.0000
  O   O303      1.0  0.5648  0.6284000000000001  0.042200000000000015  1.0000
  O   O304      1.0  0.8123999999999999  0.8671  0.8399999999999999  1.0000
  O   O305      1.0  0.18760000000000004  0.13289999999999996  0.16000000000000014  1.0000
  O   O306      1.0  0.6532  0.2891000000000001  0.4711  1.0000
  O   O307      1.0  0.34680000000000005  0.7108999999999998  0.5288999999999999  1.0000
  O   O308      1.0  0.3119  0.20560000000000003  0.5139  1.0000
  O   O309      1.0  0.6881000000000002  0.7944  0.4861  1.0000
  O   O310      1.0  0.8022  0.5141000000000001  0.8182000000000001  1.0000
  O   O311      1.0  0.19780000000000003  0.48590000000000005  0.18179999999999985  1.0000
  O   O312      1.0  0.8017  0.7411000000000001  0.7268  1.0000
  O   O313      1.0  0.19830000000000006  0.2589  0.2732  1.0000
  O   O314      1.0  0.04980000000000007  0.9091  0.7379  1.0000
  O   O315      1.0  0.9502  0.09089999999999998  0.2621  1.0000
  O   O316      1.0  0.9399999999999997  0.7271000000000001  0.6794  1.0000
  O   O317      1.0  0.06000000000000006  0.2729  0.3206  1.0000
  O   O318      1.0  0.44109999999999994  0.02609999999999997  0.7969000000000002  1.0000
  O   O319      1.0  0.5589000000000002  0.9739  0.20309999999999984  1.0000
  O   O320      1.0  0.5613  0.1089  0.326  1.0000
  O   O321      1.0  0.43869999999999987  0.8911000000000001  0.6739999999999999  1.0000
  O   O322      1.0  0.3338999999999999  0.01820000000000001  0.6314  1.0000
  O   O323      1.0  0.6661000000000001  0.9818000000000001  0.36860000000000004  1.0000
  O   O324      1.0  0.05399999999999999  0.2709  0.615  1.0000
  O   O325      1.0  0.946  0.7291000000000001  0.385  1.0000
  O   O326      1.0  0.29369999999999996  0.6823  0.11569999999999993  1.0000
  O   O327      1.0  0.7063000000000001  0.3176999999999999  0.8843000000000001  1.0000
  O   O328      1.0  0.049000000000000085  0.6274  0.9035999999999998  1.0000
  O   O329      1.0  0.9509999999999998  0.37260000000000004  0.09640000000000015  1.0000
  O   O330      1.0  0.6753  0.19350000000000006  0.7959000000000002  1.0000
  O   O331      1.0  0.3247  0.8065  0.20409999999999984  1.0000
  O   O332      1.0  0.4268000000000001  0.5737000000000001  0.8680999999999999  1.0000
  O   O333      1.0  0.5732  0.42629999999999996  0.13190000000000013  1.0000
  O   O334      1.0  0.05749999999999998  0.2749  0.9325  1.0000
  O   O335      1.0  0.9425000000000001  0.7251000000000002  0.0675  1.0000
  O   O336      1.0  0.3764000000000001  0.9927000000000001  0.7327  1.0000
  O   O337      1.0  0.6235999999999999  0.007300000000000014  0.2673  1.0000
  O   O338      1.0  0.4409  0.35419999999999996  0.7746  1.0000
  O   O339      1.0  0.5590999999999999  0.6458  0.22540000000000007  1.0000
  O   O340      1.0  0.2818  0.14130000000000004  0.6617  1.0000
  O   O341      1.0  0.7181999999999998  0.8587000000000001  0.33830000000000005  1.0000
  O   O342      1.0  0.8161  0.040999999999999995  0.5288  1.0000
  O   O343      1.0  0.18389999999999992  0.9590000000000001  0.47119999999999995  1.0000
  O   O344      1.0  0.6941  0.31690000000000007  0.1611  1.0000
  O   O345      1.0  0.3059  0.6830999999999999  0.8389  1.0000
  O   O346      1.0  0.9537000000000001  0.1886  0.7799  1.0000
  O   O347      1.0  0.04629999999999991  0.8114  0.22009999999999996  1.0000
  O   O348      1.0  0.9358  0.21099999999999997  0.9708000000000001  1.0000
  O   O349      1.0  0.06419999999999998  0.789  0.029199999999999896  1.0000
  O   O350      1.0  0.3134  0.2209  0.7058  1.0000
  O   O351      1.0  0.6866000000000001  0.7791  0.2942  1.0000
  O   O352      1.0  0.3017999999999999  0.5532000000000001  0.7201  1.0000
  O   O353      1.0  0.6982000000000003  0.44679999999999986  0.27990000000000004  1.0000
  O   O354      1.0  0.7414  0.5958999999999999  0.007900000000000018  1.0000
  O   O355      1.0  0.25859999999999994  0.4041  0.9921000000000001  1.0000
  O   O356      1.0  0.004399999999999986  0.9273999999999999  0.8467  1.0000
  O   O357      1.0  0.9956  0.0726  0.1533  1.0000
  O   O358      1.0  0.3726999999999999  0.2780000000000001  0.7576  1.0000
  O   O359      1.0  0.6273000000000001  0.722  0.24239999999999992  1.0000
  O   O360      1.0  0.9532999999999998  0.8440000000000001  0.7861  1.0000
  O   O361      1.0  0.046699999999999964  0.15600000000000003  0.21389999999999998  1.0000
