data_image0
_chemical_formula_structural       Sb16In8Zn20
_chemical_formula_sum              "Sb16 In8 Zn20"
_cell_length_a       8.6518
_cell_length_b       7.136
_cell_length_c       17.1158
_cell_angle_alpha    90.0
_cell_angle_beta     90.0
_cell_angle_gamma    90.0

_space_group_name_H-M_alt    "P 1"
_space_group_IT_number       1

loop_
  _space_group_symop_operation_xyz
  'x, y, z'

loop_
  _atom_site_type_symbol
  _atom_site_label
  _atom_site_symmetry_multiplicity
  _atom_site_fract_x
  _atom_site_fract_y
  _atom_site_fract_z
  _atom_site_occupancy
  Sb  Sb1       1.0  0.9186700000000002  0.76582  0.5407500000000001  1.0000
  Sb  Sb2       1.0  0.0813299999999999  0.26581999999999995  0.95925  1.0000
  Sb  Sb3       1.0  0.0813299999999999  0.23418000000000005  0.45925  1.0000
  Sb  Sb4       1.0  0.9186700000000002  0.73418  0.04075000000000001  1.0000
  Sb  Sb5       1.0  0.5785100000000002  0.23651999999999998  0.54207  1.0000
  Sb  Sb6       1.0  0.42149  0.73652  0.9579300000000001  1.0000
  Sb  Sb7       1.0  0.42149  0.76348  0.45793  1.0000
  Sb  Sb8       1.0  0.5785100000000002  0.26348000000000005  0.042069999999999996  1.0000
  Sb  Sb9       1.0  0.92074  0.26164  0.7013199999999999  1.0000
  Sb  Sb10      1.0  0.07926  0.76164  0.7986800000000001  1.0000
  Sb  Sb11      1.0  0.07926  0.73836  0.29868  1.0000
  Sb  Sb12      1.0  0.92074  0.23836000000000002  0.20132  1.0000
  Sb  Sb13      1.0  0.58638  0.7466399999999997  0.7032  1.0000
  Sb  Sb14      1.0  0.41362  0.24663999999999975  0.7968  1.0000
  Sb  Sb15      1.0  0.41362  0.25336000000000014  0.2968  1.0000
  Sb  Sb16      1.0  0.58638  0.75336  0.2032  1.0000
  In  In1       1.0  0.75519  0.4931799999999999  0.93596  0.9190
  In  In2       1.0  0.24480999999999997  0.9931799999999998  0.56404  0.9190
  In  In3       1.0  0.24480999999999997  0.50682  0.06404  0.9190
  In  In4       1.0  0.75519  0.006820000000000048  0.43596  0.9190
  In  In5       1.0  0.74616  0.9782699999999999  0.86476  0.9600
  In  In6       1.0  0.25384  0.47827  0.63524  0.9600
  In  In7       1.0  0.25384  0.02173  0.13524  0.9600
  In  In8       1.0  0.74616  0.52173  0.36476  0.9600
  Zn  Zn1       1.0  0.8743  0.38776  0.55715  1.0000
  Zn  Zn2       1.0  0.12570000000000003  0.88776  0.94285  1.0000
  Zn  Zn3       1.0  0.12570000000000003  0.61224  0.44285  1.0000
  Zn  Zn4       1.0  0.8743  0.11224  0.05714999999999998  1.0000
  Zn  Zn5       1.0  0.62081  0.6136799999999998  0.5594399999999999  1.0000
  Zn  Zn6       1.0  0.37919  0.11367999999999999  0.9405600000000001  1.0000
  Zn  Zn7       1.0  0.37919  0.38632000000000005  0.44056  1.0000
  Zn  Zn8       1.0  0.62081  0.88632  0.05943999999999999  1.0000
  Zn  Zn9       1.0  0.8995000000000002  0.8907399999999998  0.68596  1.0000
  Zn  Zn10      1.0  0.10049999999999992  0.3907399999999998  0.81404  1.0000
  Zn  Zn11      1.0  0.10049999999999992  0.10926000000000012  0.31404  1.0000
  Zn  Zn12      1.0  0.8995000000000002  0.60926  0.18596000000000001  1.0000
  Zn  Zn13      1.0  0.38489  0.62553  0.8121700000000001  1.0000
  Zn  Zn14      1.0  0.61511  0.12552999999999992  0.6878299999999999  1.0000
  Zn  Zn15      1.0  0.61511  0.37446999999999997  0.18783  1.0000
  Zn  Zn16      1.0  0.38489  0.87447  0.31217  1.0000
  Zn  Zn17      1.0  0.70548  0.4498  0.78468  1.0000
  Zn  Zn18      1.0  0.29452  0.9498  0.71532  1.0000
  Zn  Zn19      1.0  0.29452  0.5501999999999999  0.21532  1.0000
  Zn  Zn20      1.0  0.70548  0.05020000000000002  0.28468  1.0000
