data_image0
_chemical_formula_structural       Ge10Cu16S32N16C8
_chemical_formula_sum              "Ge10 Cu16 S32 N16 C8"
_cell_length_a       11.5517
_cell_length_b       11.5517
_cell_length_c       17.5999
_cell_angle_alpha    90.0
_cell_angle_beta     90.0
_cell_angle_gamma    90.0

_space_group_name_H-M_alt    "P 1"
_space_group_IT_number       1

loop_
  _space_group_symop_operation_xyz
  'x, y, z'

loop_
  _atom_site_type_symbol
  _atom_site_label
  _atom_site_symmetry_multiplicity
  _atom_site_fract_x
  _atom_site_fract_y
  _atom_site_fract_z
  _atom_site_occupancy
  Ge  Ge1       1.0  0.0  0.36875  0.0  1.0000
  Ge  Ge2       1.0  0.63125  0.0  0.5  1.0000
  Ge  Ge3       1.0  0.0  0.63125  0.0  1.0000
  Ge  Ge4       1.0  0.36875  0.0  0.5  1.0000
  Ge  Ge5       1.0  0.0  0.0  0.25  1.0000
  Ge  Ge6       1.0  0.0  0.0  0.7499999999999999  1.0000
  Ge  Ge7       1.0  0.36802999999999997  0.0  0.0  1.0000
  Ge  Ge8       1.0  0.0  0.36802999999999997  0.5  1.0000
  Ge  Ge9       1.0  0.63197  0.0  0.0  1.0000
  Ge  Ge10      1.0  0.0  0.63197  0.5  1.0000
  Cu  Cu1       1.0  0.13745  0.13433  0.09126  1.0000
  Cu  Cu2       1.0  0.8656699999999998  0.13745  0.5912599999999999  1.0000
  Cu  Cu3       1.0  0.86255  0.8656699999999998  0.09126  1.0000
  Cu  Cu4       1.0  0.13433  0.86255  0.5912599999999999  1.0000
  Cu  Cu5       1.0  0.13745  0.8656699999999998  0.90874  1.0000
  Cu  Cu6       1.0  0.13433  0.13745  0.40874  1.0000
  Cu  Cu7       1.0  0.86255  0.13433  0.90874  1.0000
  Cu  Cu8       1.0  0.8656699999999998  0.86255  0.40874  1.0000
  Cu  Cu9       1.0  0.86255  0.8656699999999998  0.90874  1.0000
  Cu  Cu10      1.0  0.13433  0.86255  0.40874  1.0000
  Cu  Cu11      1.0  0.13745  0.13433  0.90874  1.0000
  Cu  Cu12      1.0  0.8656699999999998  0.13745  0.40874  1.0000
  Cu  Cu13      1.0  0.86255  0.13433  0.09126  1.0000
  Cu  Cu14      1.0  0.8656699999999998  0.86255  0.5912599999999999  1.0000
  Cu  Cu15      1.0  0.13745  0.8656699999999998  0.09126  1.0000
  Cu  Cu16      1.0  0.13433  0.13745  0.5912599999999999  1.0000
  S   S1        1.0  0.271  0.163  0.0  1.0000
  S   S2        1.0  0.837  0.271  0.5  1.0000
  S   S3        1.0  0.729  0.837  0.0  1.0000
  S   S4        1.0  0.163  0.729  0.5  1.0000
  S   S5        1.0  0.271  0.837  0.0  1.0000
  S   S6        1.0  0.163  0.271  0.5  1.0000
  S   S7        1.0  0.729  0.163  0.0  1.0000
  S   S8        1.0  0.837  0.729  0.5  1.0000
  S   S9        1.0  0.0  0.2706  0.10659  1.0000
  S   S10       1.0  0.7293999999999999  0.0  0.60659  1.0000
  S   S11       1.0  0.0  0.7293999999999999  0.10659  1.0000
  S   S12       1.0  0.2706  0.0  0.60659  1.0000
  S   S13       1.0  0.0  0.7293999999999999  0.8934099999999999  1.0000
  S   S14       1.0  0.2706  0.0  0.3934099999999999  1.0000
  S   S15       1.0  0.0  0.2706  0.8934099999999999  1.0000
  S   S16       1.0  0.7293999999999999  0.0  0.3934099999999999  1.0000
  S   S17       1.0  0.5  0.0  0.9049  1.0000
  S   S18       1.0  0.0  0.5  0.4049  1.0000
  S   S19       1.0  0.5  0.0  0.0951  1.0000
  S   S20       1.0  0.0  0.5  0.5951  1.0000
  S   S21       1.0  0.1626  0.0  0.1818  1.0000
  S   S22       1.0  0.0  0.1626  0.6818  1.0000
  S   S23       1.0  0.8374  0.0  0.1818  1.0000
  S   S24       1.0  0.0  0.8374  0.6818  1.0000
  S   S25       1.0  0.1626  0.0  0.8182  1.0000
  S   S26       1.0  0.0  0.1626  0.31820000000000004  1.0000
  S   S27       1.0  0.8374  0.0  0.8182  1.0000
  S   S28       1.0  0.0  0.8374  0.31820000000000004  1.0000
  S   S29       1.0  0.8549999999999999  0.5  0.0  1.0000
  S   S30       1.0  0.5  0.8549999999999999  0.5  1.0000
  S   S31       1.0  0.145  0.5  0.0  1.0000
  S   S32       1.0  0.5  0.145  0.5  1.0000
  N   N1        1.0  0.37799999999999995  0.8260000000000001  0.2424  1.0000
  N   N2        1.0  0.174  0.37799999999999995  0.7424  1.0000
  N   N3        1.0  0.6220000000000001  0.174  0.2424  1.0000
  N   N4        1.0  0.8260000000000001  0.6220000000000001  0.7424  1.0000
  N   N5        1.0  0.37799999999999995  0.174  0.7576  1.0000
  N   N6        1.0  0.8260000000000001  0.37799999999999995  0.2576  1.0000
  N   N7        1.0  0.6220000000000001  0.8260000000000001  0.7576  1.0000
  N   N8        1.0  0.174  0.6220000000000001  0.2576  1.0000
  N   N9        1.0  0.6220000000000001  0.174  0.7576  1.0000
  N   N10       1.0  0.8260000000000001  0.6220000000000001  0.2576  1.0000
  N   N11       1.0  0.37799999999999995  0.8260000000000001  0.7576  1.0000
  N   N12       1.0  0.174  0.37799999999999995  0.2576  1.0000
  N   N13       1.0  0.6220000000000001  0.8260000000000001  0.2424  1.0000
  N   N14       1.0  0.174  0.6220000000000001  0.7424  1.0000
  N   N15       1.0  0.37799999999999995  0.174  0.2424  1.0000
  N   N16       1.0  0.8260000000000001  0.37799999999999995  0.7424  1.0000
  C   C1        1.0  0.5  0.829  0.285  1.0000
  C   C2        1.0  0.171  0.5  0.7849999999999999  1.0000
  C   C3        1.0  0.5  0.171  0.285  1.0000
  C   C4        1.0  0.829  0.5  0.7849999999999999  1.0000
  C   C5        1.0  0.5  0.171  0.7150000000000001  1.0000
  C   C6        1.0  0.829  0.5  0.21500000000000002  1.0000
  C   C7        1.0  0.5  0.829  0.7150000000000001  1.0000
  C   C8        1.0  0.171  0.5  0.21500000000000002  1.0000
