data_image0
_chemical_formula_structural       Mn6N6
_chemical_formula_sum              "Mn6 N6"
_cell_length_a       4.8551
_cell_length_b       4.8551
_cell_length_c       4.5326
_cell_angle_alpha    90.0
_cell_angle_beta     90.0
_cell_angle_gamma    119.99999999999999

_space_group_name_H-M_alt    "P 1"
_space_group_IT_number       1

loop_
  _space_group_symop_operation_xyz
  'x, y, z'

loop_
  _atom_site_type_symbol
  _atom_site_label
  _atom_site_symmetry_multiplicity
  _atom_site_fract_x
  _atom_site_fract_y
  _atom_site_fract_z
  _atom_site_occupancy
  Mn  Mn1       1.0  0.3333  0.0  0.0  1.0000
  Mn  Mn2       1.0  2.8830747871945603e-18  0.3333  0.0  1.0000
  Mn  Mn3       1.0  0.6667  0.6667000000000002  0.0  1.0000
  Mn  Mn4       1.0  0.6667  0.0  0.5  1.0000
  Mn  Mn5       1.0  3.464935103087064e-17  0.6667000000000002  0.5  1.0000
  Mn  Mn6       1.0  0.3333  0.3333  0.5  1.0000
  N   N1        1.0  0.0  0.0  0.25  0.4300
  N   N2        1.0  0.0  0.0  0.75  0.4300
  N   N3        1.0  0.33330000000000004  0.6667000000000002  0.25  0.7400
  N   N4        1.0  0.6667  0.33330000000000004  0.75  0.7400
  N   N5        1.0  0.33330000000000004  0.6667000000000002  0.75  0.1200
  N   N6        1.0  0.6667  0.33330000000000004  0.25  0.1200
