data_image0
_chemical_formula_structural       Rb2Li2Cr2O8
_chemical_formula_sum              "Rb2 Li2 Cr2 O8"
_cell_length_a       5.453
_cell_length_b       5.452999999999999
_cell_length_c       9.151
_cell_angle_alpha    90.0
_cell_angle_beta     90.0
_cell_angle_gamma    119.99999999999999

_space_group_name_H-M_alt    "P 1"
_space_group_IT_number       1

loop_
  _space_group_symop_operation_xyz
  'x, y, z'

loop_
  _atom_site_type_symbol
  _atom_site_label
  _atom_site_symmetry_multiplicity
  _atom_site_fract_x
  _atom_site_fract_y
  _atom_site_fract_z
  _atom_site_occupancy
  Rb  Rb1       1.0  0.0  0.0  0.0  1.0000
  Rb  Rb2       1.0  0.0  0.0  0.5  1.0000
  Li  Li1       1.0  0.3333  0.6667  0.18  1.0000
  Li  Li2       1.0  0.6667  0.3333  0.6799999999999999  1.0000
  Cr  Cr1       1.0  0.3333  0.6667  0.7925  1.0000
  Cr  Cr2       1.0  0.6667  0.3333  0.2925  1.0000
  O   O1        1.0  0.3333  0.6667  0.9678000000000001  1.0000
  O   O2        1.0  0.6667  0.3333  0.46779999999999994  1.0000
  O   O3        1.0  0.3973  0.3613  0.23369999999999996  1.0000
  O   O4        1.0  0.6387  0.035999999999999976  0.23369999999999996  1.0000
  O   O5        1.0  0.964  0.6027  0.23369999999999996  1.0000
  O   O6        1.0  0.36130000000000007  0.39730000000000004  0.7337  1.0000
  O   O7        1.0  0.035999999999999976  0.6387  0.7337  1.0000
  O   O8        1.0  0.6027  0.964  0.7337  1.0000
