data_image0
_chemical_formula_structural       Li4Sb4O12
_chemical_formula_sum              "Li4 Sb4 O12"
_cell_length_a       4.9005
_cell_length_b       8.4892
_cell_length_c       5.1816
_cell_angle_alpha    90.0
_cell_angle_beta     90.0
_cell_angle_gamma    90.0

_space_group_name_H-M_alt    "P 1"
_space_group_IT_number       1

loop_
  _space_group_symop_operation_xyz
  'x, y, z'

loop_
  _atom_site_type_symbol
  _atom_site_label
  _atom_site_symmetry_multiplicity
  _atom_site_fract_x
  _atom_site_fract_y
  _atom_site_fract_z
  _atom_site_occupancy
  Li  Li1       1.0  0.0  0.699  0.25  1.0000
  Li  Li2       1.0  0.5  0.801  0.25  1.0000
  Li  Li3       1.0  0.0  0.30100000000000005  0.7500000000000001  1.0000
  Li  Li4       1.0  0.5  0.19899999999999984  0.7500000000000001  1.0000
  Sb  Sb1       1.0  0.0  0.0955  0.25  1.0000
  Sb  Sb2       1.0  0.5  0.4044999999999999  0.25  1.0000
  Sb  Sb3       1.0  0.0  0.9044999999999999  0.7500000000000001  1.0000
  Sb  Sb4       1.0  0.5  0.5955  0.7500000000000001  1.0000
  O   O1        1.0  0.25  0.25  0.40900000000000003  1.0000
  O   O2        1.0  0.75  0.25  0.09099999999999997  1.0000
  O   O3        1.0  0.75  0.75  0.5910000000000001  1.0000
  O   O4        1.0  0.25  0.75  0.9090000000000001  1.0000
  O   O5        1.0  0.20600000000000002  0.08499999999999999  0.9240000000000003  1.0000
  O   O6        1.0  0.794  0.08499999999999999  0.5759999999999998  1.0000
  O   O7        1.0  0.29400000000000004  0.41500000000000004  0.9240000000000003  1.0000
  O   O8        1.0  0.7060000000000001  0.41500000000000004  0.5759999999999998  1.0000
  O   O9        1.0  0.794  0.915  0.07599999999999986  1.0000
  O   O10       1.0  0.20600000000000002  0.915  0.42400000000000015  1.0000
  O   O11       1.0  0.7060000000000001  0.585  0.07599999999999986  1.0000
  O   O12       1.0  0.29400000000000004  0.585  0.42400000000000015  1.0000
