data_image0
_chemical_formula_structural       H4
_chemical_formula_sum              "H4"
_cell_length_a       1
_cell_length_b       1.0009
_cell_length_c       1.0003
_cell_angle_alpha    90
_cell_angle_beta     90.0229
_cell_angle_gamma    89.9943

_space_group_name_H-M_alt    "P 1"
_space_group_IT_number       1

loop_
  _space_group_symop_operation_xyz
  'x, y, z'

loop_
  _atom_site_type_symbol
  _atom_site_label
  _atom_site_symmetry_multiplicity
  _atom_site_fract_x
  _atom_site_fract_y
  _atom_site_fract_z
  _atom_site_occupancy
  H   H1        1.0  0.93900  0.12360  0.00350  1.0000
  H   H2        1.0  0.68830  0.62560  0.25170  1.0000
  H   H3        1.0  0.43650  0.37950  0.75520  1.0000
  H   H4        1.0  0.18240  0.88150  0.50360  1.0000
