data_image0
_chemical_formula_structural       Ni24K16S32
_chemical_formula_sum              "Ni24 K16 S32"
_cell_length_a       5.723
_cell_length_b       10.04
_cell_length_c       26.05899
_cell_angle_alpha    90.0
_cell_angle_beta     90.0
_cell_angle_gamma    90.0

_space_group_name_H-M_alt    "P 1"
_space_group_IT_number       1

loop_
  _space_group_symop_operation_xyz
  'x, y, z'

loop_
  _atom_site_type_symbol
  _atom_site_label
  _atom_site_symmetry_multiplicity
  _atom_site_fract_x
  _atom_site_fract_y
  _atom_site_fract_z
  _atom_site_occupancy
  Ni  Ni1       1.0  0.125  0.125  0.125  1.0000
  Ni  Ni2       1.0  0.875  0.8750000000000001  0.875  1.0000
  Ni  Ni3       1.0  0.125  0.625  0.625  1.0000
  Ni  Ni4       1.0  0.625  0.125  0.625  1.0000
  Ni  Ni5       1.0  0.625  0.625  0.125  1.0000
  Ni  Ni6       1.0  0.875  0.375  0.37500000000000006  1.0000
  Ni  Ni7       1.0  0.375  0.8750000000000001  0.37500000000000006  1.0000
  Ni  Ni8       1.0  0.375  0.375  0.875  1.0000
  Ni  Ni9       1.0  0.375  0.375  0.12443  1.0000
  Ni  Ni10      1.0  0.375  0.8750000000000001  0.12557000000000001  1.0000
  Ni  Ni11      1.0  0.875  0.375  0.12557000000000001  1.0000
  Ni  Ni12      1.0  0.875  0.8750000000000001  0.12443  1.0000
  Ni  Ni13      1.0  0.625  0.625  0.87557  1.0000
  Ni  Ni14      1.0  0.625  0.125  0.87443  1.0000
  Ni  Ni15      1.0  0.125  0.625  0.87443  1.0000
  Ni  Ni16      1.0  0.125  0.125  0.87557  1.0000
  Ni  Ni17      1.0  0.375  0.8750000000000001  0.62443  1.0000
  Ni  Ni18      1.0  0.875  0.375  0.62443  1.0000
  Ni  Ni19      1.0  0.375  0.375  0.62557  1.0000
  Ni  Ni20      1.0  0.875  0.8750000000000001  0.62557  1.0000
  Ni  Ni21      1.0  0.625  0.125  0.37556999999999996  1.0000
  Ni  Ni22      1.0  0.125  0.625  0.37556999999999996  1.0000
  Ni  Ni23      1.0  0.625  0.625  0.37443  1.0000
  Ni  Ni24      1.0  0.125  0.125  0.37443  1.0000
  K   K1        1.0  0.625  0.125  0.04451  1.0000
  K   K2        1.0  0.625  0.125  0.20549  1.0000
  K   K3        1.0  0.375  0.8750000000000001  0.95549  1.0000
  K   K4        1.0  0.375  0.8750000000000001  0.79451  1.0000
  K   K5        1.0  0.625  0.625  0.54451  1.0000
  K   K6        1.0  0.125  0.125  0.54451  1.0000
  K   K7        1.0  0.125  0.625  0.04451  1.0000
  K   K8        1.0  0.625  0.625  0.7054899999999998  1.0000
  K   K9        1.0  0.125  0.125  0.7054899999999998  1.0000
  K   K10       1.0  0.125  0.625  0.20549  1.0000
  K   K11       1.0  0.375  0.375  0.45549  1.0000
  K   K12       1.0  0.875  0.8750000000000001  0.45549  1.0000
  K   K13       1.0  0.875  0.375  0.95549  1.0000
  K   K14       1.0  0.375  0.375  0.29451  1.0000
  K   K15       1.0  0.875  0.8750000000000001  0.29451  1.0000
  K   K16       1.0  0.875  0.375  0.79451  1.0000
  S   S1        1.0  0.1292  0.9587  0.06876  1.0000
  S   S2        1.0  0.1292  0.2913  0.18124  1.0000
  S   S3        1.0  0.12079999999999998  0.9587  0.18124  1.0000
  S   S4        1.0  0.12079999999999998  0.2913  0.06876  1.0000
  S   S5        1.0  0.8708  0.0413  0.9312399999999998  1.0000
  S   S6        1.0  0.8708  0.7087  0.81876  1.0000
  S   S7        1.0  0.8791999999999999  0.0413  0.81876  1.0000
  S   S8        1.0  0.8791999999999999  0.7087  0.9312399999999998  1.0000
  S   S9        1.0  0.1292  0.4587  0.56876  1.0000
  S   S10       1.0  0.6292  0.9587  0.56876  1.0000
  S   S11       1.0  0.6292  0.4587  0.06876  1.0000
  S   S12       1.0  0.1292  0.7913  0.68124  1.0000
  S   S13       1.0  0.6292  0.2913  0.68124  1.0000
  S   S14       1.0  0.6292  0.7913  0.18124  1.0000
  S   S15       1.0  0.12079999999999998  0.4587  0.68124  1.0000
  S   S16       1.0  0.6208  0.9587  0.68124  1.0000
  S   S17       1.0  0.6208  0.4587  0.18124  1.0000
  S   S18       1.0  0.12079999999999998  0.7913  0.56876  1.0000
  S   S19       1.0  0.6208  0.2913  0.56876  1.0000
  S   S20       1.0  0.6208  0.7913  0.06876  1.0000
  S   S21       1.0  0.8708  0.5413  0.43124  1.0000
  S   S22       1.0  0.37079999999999996  0.0413  0.43124  1.0000
  S   S23       1.0  0.37079999999999996  0.5413  0.9312399999999998  1.0000
  S   S24       1.0  0.8708  0.20870000000000002  0.31876  1.0000
  S   S25       1.0  0.37079999999999996  0.7087  0.31876  1.0000
  S   S26       1.0  0.37079999999999996  0.20870000000000002  0.81876  1.0000
  S   S27       1.0  0.8791999999999999  0.5413  0.31876  1.0000
  S   S28       1.0  0.3791999999999999  0.0413  0.31876  1.0000
  S   S29       1.0  0.3791999999999999  0.5413  0.81876  1.0000
  S   S30       1.0  0.8791999999999999  0.20870000000000002  0.43124  1.0000
  S   S31       1.0  0.3791999999999999  0.7087  0.43124  1.0000
  S   S32       1.0  0.3791999999999999  0.20870000000000002  0.9312399999999998  1.0000
