data_image0
_chemical_formula_structural       Zn2Ni2N8C8
_chemical_formula_sum              "Zn2 Ni2 N8 C8"
_cell_length_a       7.4474
_cell_length_b       7.4474
_cell_length_c       13.05
_cell_angle_alpha    90.0
_cell_angle_beta     90.0
_cell_angle_gamma    90.0

_space_group_name_H-M_alt    "P 1"
_space_group_IT_number       1

loop_
  _space_group_symop_operation_xyz
  'x, y, z'

loop_
  _atom_site_type_symbol
  _atom_site_label
  _atom_site_symmetry_multiplicity
  _atom_site_fract_x
  _atom_site_fract_y
  _atom_site_fract_z
  _atom_site_occupancy
  Zn  Zn1       1.0  0.0  0.0  0.25  1.0000
  Zn  Zn2       1.0  0.0  0.0  0.75  1.0000
  Ni  Ni1       1.0  0.5  0.0  0.0  1.0000
  Ni  Ni2       1.0  0.0  0.5  0.5  1.0000
  N   N1        1.0  0.21120000000000003  0.0  0.16015  1.0000
  N   N2        1.0  0.0  0.21120000000000003  0.66015  1.0000
  N   N3        1.0  0.7888  0.0  0.16015  1.0000
  N   N4        1.0  0.0  0.7888  0.66015  1.0000
  N   N5        1.0  0.21120000000000003  0.0  0.83985  1.0000
  N   N6        1.0  0.7888  0.0  0.83985  1.0000
  N   N7        1.0  0.0  0.21120000000000003  0.33984999999999993  1.0000
  N   N8        1.0  0.0  0.7888  0.33984999999999993  1.0000
  C   C1        1.0  0.3228  0.0  0.10002  1.0000
  C   C2        1.0  0.0  0.3228  0.60002  1.0000
  C   C3        1.0  0.6772  0.0  0.10002  1.0000
  C   C4        1.0  0.0  0.6772  0.60002  1.0000
  C   C5        1.0  0.3228  0.0  0.89998  1.0000
  C   C6        1.0  0.6772  0.0  0.89998  1.0000
  C   C7        1.0  0.0  0.3228  0.39998  1.0000
  C   C8        1.0  0.0  0.6772  0.39998  1.0000
