data_image0
_chemical_formula_structural       Ge8N8O4
_chemical_formula_sum              "Ge8 N8 O4"
_cell_length_a       9.312
_cell_length_b       5.755
_cell_length_c       5.105
_cell_angle_alpha    90.0
_cell_angle_beta     90.0
_cell_angle_gamma    90.0

_space_group_name_H-M_alt    "P 1"
_space_group_IT_number       1

loop_
  _space_group_symop_operation_xyz
  'x, y, z'

loop_
  _atom_site_type_symbol
  _atom_site_label
  _atom_site_symmetry_multiplicity
  _atom_site_fract_x
  _atom_site_fract_y
  _atom_site_fract_z
  _atom_site_occupancy
  Ge  Ge1       1.0  0.173  0.149  0.321  1.0000
  Ge  Ge2       1.0  0.827  0.149  0.321  1.0000
  Ge  Ge3       1.0  0.827  0.851  0.821  1.0000
  Ge  Ge4       1.0  0.173  0.851  0.821  1.0000
  Ge  Ge5       1.0  0.673  0.649  0.321  1.0000
  Ge  Ge6       1.0  0.327  0.649  0.321  1.0000
  Ge  Ge7       1.0  0.327  0.351  0.821  1.0000
  Ge  Ge8       1.0  0.673  0.351  0.821  1.0000
  N   N1        1.0  0.205  0.136  0.666  1.0000
  N   N2        1.0  0.795  0.136  0.666  1.0000
  N   N3        1.0  0.795  0.864  0.16599999999999993  1.0000
  N   N4        1.0  0.205  0.864  0.16599999999999993  1.0000
  N   N5        1.0  0.705  0.636  0.666  1.0000
  N   N6        1.0  0.29500000000000004  0.636  0.666  1.0000
  N   N7        1.0  0.29500000000000004  0.364  0.16599999999999993  1.0000
  N   N8        1.0  0.705  0.364  0.16599999999999993  1.0000
  O   O1        1.0  0.0  0.246  0.23000000000000004  1.0000
  O   O2        1.0  0.0  0.754  0.73  1.0000
  O   O3        1.0  0.5  0.746  0.23000000000000004  1.0000
  O   O4        1.0  0.5  0.254  0.73  1.0000
