data_image0
_chemical_formula_structural       SnI3CN
_chemical_formula_sum              "Sn1 I3 C1 N1"
_cell_length_a       6.2302
_cell_length_b       6.2302
_cell_length_c       6.2316
_cell_angle_alpha    90.0
_cell_angle_beta     90.0
_cell_angle_gamma    90.0

_space_group_name_H-M_alt    "P 1"
_space_group_IT_number       1

loop_
  _space_group_symop_operation_xyz
  'x, y, z'

loop_
  _atom_site_type_symbol
  _atom_site_label
  _atom_site_symmetry_multiplicity
  _atom_site_fract_x
  _atom_site_fract_y
  _atom_site_fract_z
  _atom_site_occupancy
  Sn  Sn1       1.0  0.0  0.0  0.9503  1.0000
  I   I1        1.0  0.5  0.0  0.9615  1.0000
  I   I2        1.0  0.0  0.5  0.9615  1.0000
  I   I3        1.0  0.0  0.0  0.46290000000000003  1.0000
  C   C1        1.0  0.5  0.5  0.301  1.0000
  N   N1        1.0  0.5  0.5  0.517  1.0000
