data_image0
_chemical_formula_structural       Sc16O96C192
_chemical_formula_sum              "Sc16 O96 C192"
_cell_length_a       8.715763
_cell_length_b       20.722986
_cell_length_c       34.36496
_cell_angle_alpha    90.0
_cell_angle_beta     90.0
_cell_angle_gamma    90.0

_space_group_name_H-M_alt    "P 1"
_space_group_IT_number       1

loop_
  _space_group_symop_operation_xyz
  'x, y, z'

loop_
  _atom_site_type_symbol
  _atom_site_label
  _atom_site_symmetry_multiplicity
  _atom_site_fract_x
  _atom_site_fract_y
  _atom_site_fract_z
  _atom_site_occupancy
  Sc  Sc1       1.0  0.125  0.125  0.364451  1.0000
  Sc  Sc2       1.0  0.875  0.375  0.6144510000000001  1.0000
  Sc  Sc3       1.0  0.375  0.875  0.6144510000000001  1.0000
  Sc  Sc4       1.0  0.6250000000000001  0.125  0.8644510000000001  1.0000
  Sc  Sc5       1.0  0.875  0.875  0.635549  1.0000
  Sc  Sc6       1.0  0.125  0.6249999999999999  0.385549  1.0000
  Sc  Sc7       1.0  0.6250000000000001  0.125  0.385549  1.0000
  Sc  Sc8       1.0  0.375  0.875  0.13554899999999998  1.0000
  Sc  Sc9       1.0  0.125  0.6249999999999999  0.8644510000000001  1.0000
  Sc  Sc10      1.0  0.875  0.875  0.11445100000000008  1.0000
  Sc  Sc11      1.0  0.375  0.375  0.11445100000000008  1.0000
  Sc  Sc12      1.0  0.6250000000000001  0.6249999999999999  0.364451  1.0000
  Sc  Sc13      1.0  0.875  0.375  0.13554899999999998  1.0000
  Sc  Sc14      1.0  0.125  0.125  0.8855489999999999  1.0000
  Sc  Sc15      1.0  0.6250000000000001  0.6249999999999999  0.8855489999999999  1.0000
  Sc  Sc16      1.0  0.375  0.375  0.635549  1.0000
  O   O1        1.0  0.9918  0.20871999999999996  0.36458000000000007  1.0000
  O   O2        1.0  0.008200000000000002  0.45871999999999996  0.6145800000000001  1.0000
  O   O3        1.0  0.24180000000000001  0.79128  0.6145800000000001  1.0000
  O   O4        1.0  0.7582  0.04128000000000003  0.8645800000000001  1.0000
  O   O5        1.0  0.008200000000000002  0.79128  0.63542  1.0000
  O   O6        1.0  0.9918  0.5412799999999999  0.38541999999999993  1.0000
  O   O7        1.0  0.7582  0.20871999999999996  0.38541999999999993  1.0000
  O   O8        1.0  0.24180000000000001  0.95872  0.13541999999999996  1.0000
  O   O9        1.0  0.9918  0.70872  0.8645800000000001  1.0000
  O   O10       1.0  0.008200000000000002  0.95872  0.11458000000000013  1.0000
  O   O11       1.0  0.24180000000000001  0.29128000000000004  0.11458000000000013  1.0000
  O   O12       1.0  0.7582  0.5412799999999999  0.36458000000000007  1.0000
  O   O13       1.0  0.008200000000000002  0.29128000000000004  0.13541999999999996  1.0000
  O   O14       1.0  0.9918  0.04128000000000003  0.8854199999999999  1.0000
  O   O15       1.0  0.7582  0.70872  0.8854199999999999  1.0000
  O   O16       1.0  0.24180000000000001  0.45871999999999996  0.63542  1.0000
  O   O17       1.0  0.49180000000000007  0.20871999999999996  0.8645800000000001  1.0000
  O   O18       1.0  0.5082  0.45871999999999996  0.11458000000000013  1.0000
  O   O19       1.0  0.7418  0.79128  0.11458000000000013  1.0000
  O   O20       1.0  0.2582  0.04128000000000003  0.36458000000000007  1.0000
  O   O21       1.0  0.5082  0.79128  0.13541999999999996  1.0000
  O   O22       1.0  0.49180000000000007  0.5412799999999999  0.8854199999999999  1.0000
  O   O23       1.0  0.2582  0.20871999999999996  0.8854199999999999  1.0000
  O   O24       1.0  0.7418  0.95872  0.63542  1.0000
  O   O25       1.0  0.49180000000000007  0.70872  0.36458000000000007  1.0000
  O   O26       1.0  0.5082  0.95872  0.6145800000000001  1.0000
  O   O27       1.0  0.7418  0.29128000000000004  0.6145800000000001  1.0000
  O   O28       1.0  0.2582  0.5412799999999999  0.8645800000000001  1.0000
  O   O29       1.0  0.5082  0.29128000000000004  0.63542  1.0000
  O   O30       1.0  0.49180000000000007  0.04128000000000003  0.38541999999999993  1.0000
  O   O31       1.0  0.2582  0.70872  0.38541999999999993  1.0000
  O   O32       1.0  0.7418  0.45871999999999996  0.13541999999999996  1.0000
  O   O33       1.0  0.26376  0.16536  0.32074  1.0000
  O   O34       1.0  0.73624  0.41536  0.57074  1.0000
  O   O35       1.0  0.51376  0.83464  0.57074  1.0000
  O   O36       1.0  0.48624000000000006  0.08463999999999999  0.82074  1.0000
  O   O37       1.0  0.73624  0.83464  0.67926  1.0000
  O   O38       1.0  0.26376  0.58464  0.42926  1.0000
  O   O39       1.0  0.48624000000000006  0.16536  0.42926  1.0000
  O   O40       1.0  0.51376  0.91536  0.17925999999999997  1.0000
  O   O41       1.0  0.26376  0.66536  0.82074  1.0000
  O   O42       1.0  0.73624  0.91536  0.07074000000000003  1.0000
  O   O43       1.0  0.51376  0.33463999999999994  0.07074000000000003  1.0000
  O   O44       1.0  0.48624000000000006  0.58464  0.32074  1.0000
  O   O45       1.0  0.73624  0.33463999999999994  0.17925999999999997  1.0000
  O   O46       1.0  0.26376  0.08463999999999999  0.9292600000000001  1.0000
  O   O47       1.0  0.48624000000000006  0.66536  0.9292600000000001  1.0000
  O   O48       1.0  0.51376  0.41536  0.67926  1.0000
  O   O49       1.0  0.76376  0.16536  0.82074  1.0000
  O   O50       1.0  0.23624  0.41536  0.07074000000000003  1.0000
  O   O51       1.0  0.013759999999999996  0.83464  0.07074000000000003  1.0000
  O   O52       1.0  0.9862400000000001  0.08463999999999999  0.32074  1.0000
  O   O53       1.0  0.23624  0.83464  0.17925999999999997  1.0000
  O   O54       1.0  0.76376  0.58464  0.9292600000000001  1.0000
  O   O55       1.0  0.9862400000000001  0.16536  0.9292600000000001  1.0000
  O   O56       1.0  0.013759999999999996  0.91536  0.67926  1.0000
  O   O57       1.0  0.76376  0.66536  0.32074  1.0000
  O   O58       1.0  0.23624  0.91536  0.57074  1.0000
  O   O59       1.0  0.013759999999999996  0.33463999999999994  0.57074  1.0000
  O   O60       1.0  0.9862400000000001  0.58464  0.82074  1.0000
  O   O61       1.0  0.23624  0.33463999999999994  0.67926  1.0000
  O   O62       1.0  0.76376  0.08463999999999999  0.42926  1.0000
  O   O63       1.0  0.9862400000000001  0.66536  0.42926  1.0000
  O   O64       1.0  0.013759999999999996  0.41536  0.17925999999999997  1.0000
  O   O65       1.0  0.49512000000000006  0.16569  0.34228  1.0000
  O   O66       1.0  0.50488  0.41568999999999995  0.5922799999999999  1.0000
  O   O67       1.0  0.74512  0.8343099999999999  0.5922799999999999  1.0000
  O   O68       1.0  0.25487999999999994  0.08431  0.8422799999999999  1.0000
  O   O69       1.0  0.50488  0.8343099999999999  0.6577200000000001  1.0000
  O   O70       1.0  0.49512000000000006  0.58431  0.40772  1.0000
  O   O71       1.0  0.25487999999999994  0.16569  0.40772  1.0000
  O   O72       1.0  0.74512  0.9156899999999999  0.15772000000000005  1.0000
  O   O73       1.0  0.49512000000000006  0.6656899999999999  0.8422799999999999  1.0000
  O   O74       1.0  0.50488  0.9156899999999999  0.09227999999999993  1.0000
  O   O75       1.0  0.74512  0.33431  0.09227999999999993  1.0000
  O   O76       1.0  0.25487999999999994  0.58431  0.34228  1.0000
  O   O77       1.0  0.50488  0.33431  0.15772000000000005  1.0000
  O   O78       1.0  0.49512000000000006  0.08431  0.9077200000000002  1.0000
  O   O79       1.0  0.25487999999999994  0.6656899999999999  0.9077200000000002  1.0000
  O   O80       1.0  0.74512  0.41568999999999995  0.6577200000000001  1.0000
  O   O81       1.0  0.9951200000000001  0.16569  0.8422799999999999  1.0000
  O   O82       1.0  0.00487999999999994  0.41568999999999995  0.09227999999999993  1.0000
  O   O83       1.0  0.24512  0.8343099999999999  0.09227999999999993  1.0000
  O   O84       1.0  0.75488  0.08431  0.34228  1.0000
  O   O85       1.0  0.00487999999999994  0.8343099999999999  0.15772000000000005  1.0000
  O   O86       1.0  0.9951200000000001  0.58431  0.9077200000000002  1.0000
  O   O87       1.0  0.75488  0.16569  0.9077200000000002  1.0000
  O   O88       1.0  0.24512  0.9156899999999999  0.6577200000000001  1.0000
  O   O89       1.0  0.9951200000000001  0.6656899999999999  0.34228  1.0000
  O   O90       1.0  0.00487999999999994  0.9156899999999999  0.5922799999999999  1.0000
  O   O91       1.0  0.24512  0.33431  0.5922799999999999  1.0000
  O   O92       1.0  0.75488  0.58431  0.8422799999999999  1.0000
  O   O93       1.0  0.00487999999999994  0.33431  0.6577200000000001  1.0000
  O   O94       1.0  0.9951200000000001  0.08431  0.40772  1.0000
  O   O95       1.0  0.75488  0.6656899999999999  0.40772  1.0000
  O   O96       1.0  0.24512  0.41568999999999995  0.15772000000000005  1.0000
  C   C1        1.0  0.875  0.23949999999999996  0.3750000000000001  1.0000
  C   C2        1.0  0.125  0.48949999999999994  0.625  1.0000
  C   C3        1.0  0.125  0.7605000000000001  0.625  1.0000
  C   C4        1.0  0.875  0.010500000000000037  0.875  1.0000
  C   C5        1.0  0.875  0.5105000000000001  0.37499999999999994  1.0000
  C   C6        1.0  0.125  0.9894999999999998  0.12499999999999996  1.0000
  C   C7        1.0  0.875  0.7394999999999999  0.875  1.0000
  C   C8        1.0  0.125  0.26050000000000006  0.125  1.0000
  C   C9        1.0  0.375  0.23949999999999996  0.875  1.0000
  C   C10       1.0  0.6250000000000001  0.48949999999999994  0.125  1.0000
  C   C11       1.0  0.6250000000000001  0.7605000000000001  0.125  1.0000
  C   C12       1.0  0.375  0.010500000000000037  0.3750000000000001  1.0000
  C   C13       1.0  0.375  0.5105000000000001  0.875  1.0000
  C   C14       1.0  0.6250000000000001  0.9894999999999998  0.625  1.0000
  C   C15       1.0  0.375  0.7394999999999999  0.3750000000000001  1.0000
  C   C16       1.0  0.6250000000000001  0.26050000000000006  0.625  1.0000
  C   C17       1.0  0.875  0.30963999999999997  0.3750000000000001  1.0000
  C   C18       1.0  0.125  0.5596399999999999  0.625  1.0000
  C   C19       1.0  0.125  0.6903600000000001  0.625  1.0000
  C   C20       1.0  0.875  0.9403600000000001  0.875  1.0000
  C   C21       1.0  0.875  0.44036000000000003  0.37499999999999994  1.0000
  C   C22       1.0  0.125  0.059639999999999915  0.12499999999999996  1.0000
  C   C23       1.0  0.875  0.8096399999999999  0.875  1.0000
  C   C24       1.0  0.125  0.19036000000000003  0.125  1.0000
  C   C25       1.0  0.375  0.30963999999999997  0.875  1.0000
  C   C26       1.0  0.6250000000000001  0.5596399999999999  0.125  1.0000
  C   C27       1.0  0.6250000000000001  0.6903600000000001  0.125  1.0000
  C   C28       1.0  0.375  0.9403600000000001  0.3750000000000001  1.0000
  C   C29       1.0  0.375  0.44036000000000003  0.875  1.0000
  C   C30       1.0  0.6250000000000001  0.059639999999999915  0.625  1.0000
  C   C31       1.0  0.375  0.8096399999999999  0.3750000000000001  1.0000
  C   C32       1.0  0.6250000000000001  0.19036000000000003  0.625  1.0000
  C   C33       1.0  0.73526  0.34143  0.37512  1.0000
  C   C34       1.0  0.26474  0.5914299999999999  0.62512  1.0000
  C   C35       1.0  0.98526  0.65857  0.62512  1.0000
  C   C36       1.0  0.014739999999999975  0.9085699999999999  0.87512  1.0000
  C   C37       1.0  0.26474  0.65857  0.62488  1.0000
  C   C38       1.0  0.73526  0.40857  0.37488  1.0000
  C   C39       1.0  0.014739999999999975  0.34143  0.37488  1.0000
  C   C40       1.0  0.98526  0.09142999999999989  0.12488  1.0000
  C   C41       1.0  0.73526  0.8414299999999999  0.87512  1.0000
  C   C42       1.0  0.26474  0.09142999999999989  0.1251199999999999  1.0000
  C   C43       1.0  0.98526  0.15857  0.1251199999999999  1.0000
  C   C44       1.0  0.014739999999999975  0.40857  0.37512  1.0000
  C   C45       1.0  0.26474  0.15857  0.12488  1.0000
  C   C46       1.0  0.73526  0.9085699999999999  0.87488  1.0000
  C   C47       1.0  0.014739999999999975  0.8414299999999999  0.87488  1.0000
  C   C48       1.0  0.98526  0.5914299999999999  0.62488  1.0000
  C   C49       1.0  0.23526000000000002  0.34143  0.87512  1.0000
  C   C50       1.0  0.76474  0.5914299999999999  0.1251199999999999  1.0000
  C   C51       1.0  0.4852600000000001  0.65857  0.1251199999999999  1.0000
  C   C52       1.0  0.51474  0.9085699999999999  0.37512  1.0000
  C   C53       1.0  0.76474  0.65857  0.12488  1.0000
  C   C54       1.0  0.23526000000000002  0.40857  0.87488  1.0000
  C   C55       1.0  0.51474  0.34143  0.87488  1.0000
  C   C56       1.0  0.4852600000000001  0.09142999999999989  0.62488  1.0000
  C   C57       1.0  0.23526000000000002  0.8414299999999999  0.37512  1.0000
  C   C58       1.0  0.76474  0.09142999999999989  0.62512  1.0000
  C   C59       1.0  0.4852600000000001  0.15857  0.62512  1.0000
  C   C60       1.0  0.51474  0.40857  0.87512  1.0000
  C   C61       1.0  0.76474  0.15857  0.62488  1.0000
  C   C62       1.0  0.23526000000000002  0.9085699999999999  0.37488  1.0000
  C   C63       1.0  0.51474  0.8414299999999999  0.37488  1.0000
  C   C64       1.0  0.4852600000000001  0.5914299999999999  0.12488  1.0000
  C   C65       1.0  0.4003  0.18037999999999998  0.31622  1.0000
  C   C66       1.0  0.5997  0.43038  0.5662200000000001  1.0000
  C   C67       1.0  0.6503  0.8196199999999999  0.5662200000000001  1.0000
  C   C68       1.0  0.34970000000000007  0.06962000000000002  0.81622  1.0000
  C   C69       1.0  0.5997  0.8196199999999999  0.68378  1.0000
  C   C70       1.0  0.4003  0.56962  0.43378  1.0000
  C   C71       1.0  0.34970000000000007  0.18037999999999998  0.43378  1.0000
  C   C72       1.0  0.6503  0.93038  0.18378000000000003  1.0000
  C   C73       1.0  0.4003  0.68038  0.81622  1.0000
  C   C74       1.0  0.5997  0.93038  0.06621999999999996  1.0000
  C   C75       1.0  0.6503  0.31962  0.06621999999999996  1.0000
  C   C76       1.0  0.34970000000000007  0.56962  0.31622  1.0000
  C   C77       1.0  0.5997  0.31962  0.18378000000000003  1.0000
  C   C78       1.0  0.4003  0.06962000000000002  0.9337800000000002  1.0000
  C   C79       1.0  0.34970000000000007  0.68038  0.9337800000000002  1.0000
  C   C80       1.0  0.6503  0.43038  0.68378  1.0000
  C   C81       1.0  0.9003000000000001  0.18037999999999998  0.81622  1.0000
  C   C82       1.0  0.09970000000000001  0.43038  0.06621999999999996  1.0000
  C   C83       1.0  0.1503000000000001  0.8196199999999999  0.06621999999999996  1.0000
  C   C84       1.0  0.8497  0.06962000000000002  0.31622  1.0000
  C   C85       1.0  0.09970000000000001  0.8196199999999999  0.18378000000000003  1.0000
  C   C86       1.0  0.9003000000000001  0.56962  0.9337800000000002  1.0000
  C   C87       1.0  0.8497  0.18037999999999998  0.9337800000000002  1.0000
  C   C88       1.0  0.1503000000000001  0.93038  0.68378  1.0000
  C   C89       1.0  0.9003000000000001  0.68038  0.31622  1.0000
  C   C90       1.0  0.09970000000000001  0.93038  0.5662200000000001  1.0000
  C   C91       1.0  0.1503000000000001  0.31962  0.5662200000000001  1.0000
  C   C92       1.0  0.8497  0.56962  0.81622  1.0000
  C   C93       1.0  0.09970000000000001  0.31962  0.68378  1.0000
  C   C94       1.0  0.9003000000000001  0.06962000000000002  0.43378  1.0000
  C   C95       1.0  0.8497  0.68038  0.43378  1.0000
  C   C96       1.0  0.1503000000000001  0.43038  0.18378000000000003  1.0000
  C   C97       1.0  0.4521  0.21854999999999997  0.28199  1.0000
  C   C98       1.0  0.5479  0.4685499999999999  0.53199  1.0000
  C   C99       1.0  0.7021  0.7814499999999999  0.53199  1.0000
  C   C100      1.0  0.2979  0.031450000000000033  0.7819900000000001  1.0000
  C   C101      1.0  0.5479  0.7814499999999999  0.71801  1.0000
  C   C102      1.0  0.4521  0.53145  0.4680099999999999  1.0000
  C   C103      1.0  0.2979  0.21854999999999997  0.4680099999999999  1.0000
  C   C104      1.0  0.7021  0.9685499999999999  0.21801  1.0000
  C   C105      1.0  0.4521  0.71855  0.7819900000000001  1.0000
  C   C106      1.0  0.5479  0.9685499999999999  0.03198999999999996  1.0000
  C   C107      1.0  0.7021  0.28145000000000003  0.03198999999999996  1.0000
  C   C108      1.0  0.2979  0.53145  0.28199  1.0000
  C   C109      1.0  0.5479  0.28145000000000003  0.21801  1.0000
  C   C110      1.0  0.4521  0.031450000000000033  0.9680099999999999  1.0000
  C   C111      1.0  0.2979  0.71855  0.9680099999999999  1.0000
  C   C112      1.0  0.7021  0.4685499999999999  0.71801  1.0000
  C   C113      1.0  0.9521  0.21854999999999997  0.7819900000000001  1.0000
  C   C114      1.0  0.0479  0.4685499999999999  0.03198999999999996  1.0000
  C   C115      1.0  0.20209999999999995  0.7814499999999999  0.03198999999999996  1.0000
  C   C116      1.0  0.7979000000000002  0.031450000000000033  0.28199  1.0000
  C   C117      1.0  0.0479  0.7814499999999999  0.21801  1.0000
  C   C118      1.0  0.9521  0.53145  0.9680099999999999  1.0000
  C   C119      1.0  0.7979000000000002  0.21854999999999997  0.9680099999999999  1.0000
  C   C120      1.0  0.20209999999999995  0.9685499999999999  0.71801  1.0000
  C   C121      1.0  0.9521  0.71855  0.28199  1.0000
  C   C122      1.0  0.0479  0.9685499999999999  0.53199  1.0000
  C   C123      1.0  0.20209999999999995  0.28145000000000003  0.53199  1.0000
  C   C124      1.0  0.7979000000000002  0.53145  0.7819900000000001  1.0000
  C   C125      1.0  0.0479  0.28145000000000003  0.71801  1.0000
  C   C126      1.0  0.9521  0.031450000000000033  0.4680099999999999  1.0000
  C   C127      1.0  0.7979000000000002  0.71855  0.4680099999999999  1.0000
  C   C128      1.0  0.20209999999999995  0.4685499999999999  0.21801  1.0000
  C   C129      1.0  0.3421000000000001  0.23472  0.25424  1.0000
  C   C130      1.0  0.6579  0.48472000000000004  0.50424  1.0000
  C   C131      1.0  0.5921000000000001  0.7652799999999998  0.50424  1.0000
  C   C132      1.0  0.40789999999999993  0.015279999999999986  0.75424  1.0000
  C   C133      1.0  0.6579  0.7652799999999998  0.74576  1.0000
  C   C134      1.0  0.3421000000000001  0.51528  0.49576  1.0000
  C   C135      1.0  0.40789999999999993  0.23472  0.49576  1.0000
  C   C136      1.0  0.5921000000000001  0.9847199999999999  0.24576  1.0000
  C   C137      1.0  0.3421000000000001  0.73472  0.75424  1.0000
  C   C138      1.0  0.6579  0.9847199999999999  0.0042400000000000215  1.0000
  C   C139      1.0  0.5921000000000001  0.2652799999999999  0.0042400000000000215  1.0000
  C   C140      1.0  0.40789999999999993  0.51528  0.25424  1.0000
  C   C141      1.0  0.6579  0.2652799999999999  0.24576  1.0000
  C   C142      1.0  0.3421000000000001  0.015279999999999986  0.99576  1.0000
  C   C143      1.0  0.40789999999999993  0.73472  0.99576  1.0000
  C   C144      1.0  0.5921000000000001  0.48472000000000004  0.74576  1.0000
  C   C145      1.0  0.8421000000000001  0.23472  0.75424  1.0000
  C   C146      1.0  0.15789999999999996  0.48472000000000004  0.0042400000000000215  1.0000
  C   C147      1.0  0.09210000000000008  0.7652799999999998  0.0042400000000000215  1.0000
  C   C148      1.0  0.9078999999999999  0.015279999999999986  0.25424  1.0000
  C   C149      1.0  0.15789999999999996  0.7652799999999998  0.24576  1.0000
  C   C150      1.0  0.8421000000000001  0.51528  0.99576  1.0000
  C   C151      1.0  0.9078999999999999  0.23472  0.99576  1.0000
  C   C152      1.0  0.09210000000000008  0.9847199999999999  0.74576  1.0000
  C   C153      1.0  0.8421000000000001  0.73472  0.25424  1.0000
  C   C154      1.0  0.15789999999999996  0.9847199999999999  0.50424  1.0000
  C   C155      1.0  0.09210000000000008  0.2652799999999999  0.50424  1.0000
  C   C156      1.0  0.9078999999999999  0.51528  0.75424  1.0000
  C   C157      1.0  0.15789999999999996  0.2652799999999999  0.74576  1.0000
  C   C158      1.0  0.8421000000000001  0.015279999999999986  0.49576  1.0000
  C   C159      1.0  0.9078999999999999  0.73472  0.49576  1.0000
  C   C160      1.0  0.09210000000000008  0.48472000000000004  0.24576  1.0000
  C   C161      1.0  0.6063000000000002  0.23039999999999997  0.27796  1.0000
  C   C162      1.0  0.3937  0.4803999999999999  0.52796  1.0000
  C   C163      1.0  0.8563000000000001  0.7696000000000001  0.52796  1.0000
  C   C164      1.0  0.14369999999999994  0.01960000000000003  0.77796  1.0000
  C   C165      1.0  0.3937  0.7696000000000001  0.7220400000000001  1.0000
  C   C166      1.0  0.6063000000000002  0.5196000000000001  0.47204  1.0000
  C   C167      1.0  0.14369999999999994  0.23039999999999997  0.47204  1.0000
  C   C168      1.0  0.8563000000000001  0.9803999999999999  0.22204000000000002  1.0000
  C   C169      1.0  0.6063000000000002  0.7303999999999998  0.77796  1.0000
  C   C170      1.0  0.3937  0.9803999999999999  0.027959999999999985  1.0000
  C   C171      1.0  0.8563000000000001  0.26960000000000006  0.027959999999999985  1.0000
  C   C172      1.0  0.14369999999999994  0.5196000000000001  0.27796  1.0000
  C   C173      1.0  0.3937  0.26960000000000006  0.22204000000000002  1.0000
  C   C174      1.0  0.6063000000000002  0.01960000000000003  0.9720400000000001  1.0000
  C   C175      1.0  0.14369999999999994  0.7303999999999998  0.9720400000000001  1.0000
  C   C176      1.0  0.8563000000000001  0.4803999999999999  0.7220400000000001  1.0000
  C   C177      1.0  0.10630000000000006  0.23039999999999997  0.77796  1.0000
  C   C178      1.0  0.8936999999999999  0.4803999999999999  0.027959999999999985  1.0000
  C   C179      1.0  0.35630000000000006  0.7696000000000001  0.027959999999999985  1.0000
  C   C180      1.0  0.6436999999999999  0.01960000000000003  0.27796  1.0000
  C   C181      1.0  0.8936999999999999  0.7696000000000001  0.22204000000000002  1.0000
  C   C182      1.0  0.10630000000000006  0.5196000000000001  0.9720400000000001  1.0000
  C   C183      1.0  0.6436999999999999  0.23039999999999997  0.9720400000000001  1.0000
  C   C184      1.0  0.35630000000000006  0.9803999999999999  0.7220400000000001  1.0000
  C   C185      1.0  0.10630000000000006  0.7303999999999998  0.27796  1.0000
  C   C186      1.0  0.8936999999999999  0.9803999999999999  0.52796  1.0000
  C   C187      1.0  0.35630000000000006  0.26960000000000006  0.52796  1.0000
  C   C188      1.0  0.6436999999999999  0.5196000000000001  0.77796  1.0000
  C   C189      1.0  0.8936999999999999  0.26960000000000006  0.7220400000000001  1.0000
  C   C190      1.0  0.10630000000000006  0.01960000000000003  0.47204  1.0000
  C   C191      1.0  0.6436999999999999  0.7303999999999998  0.47204  1.0000
  C   C192      1.0  0.35630000000000006  0.4803999999999999  0.22204000000000002  1.0000
