data_image0
_chemical_formula_structural       Pb4Al8O16
_chemical_formula_sum              "Pb4 Al8 O16"
_cell_length_a       8.458
_cell_length_b       9.234
_cell_length_c       5.07
_cell_angle_alpha    90.0
_cell_angle_beta     90.0
_cell_angle_gamma    90.0

_space_group_name_H-M_alt    "P 1"
_space_group_IT_number       1

loop_
  _space_group_symop_operation_xyz
  'x, y, z'

loop_
  _atom_site_type_symbol
  _atom_site_label
  _atom_site_symmetry_multiplicity
  _atom_site_fract_x
  _atom_site_fract_y
  _atom_site_fract_z
  _atom_site_occupancy
  Pb  Pb1       1.0  0.25  0.029899999999999996  0.0003  1.0000
  Pb  Pb2       1.0  0.75  0.9701  0.0003  1.0000
  Pb  Pb3       1.0  0.25  0.5299  0.5003  1.0000
  Pb  Pb4       1.0  0.75  0.4701  0.5003  1.0000
  Al  Al1       1.0  0.0541  0.6717  0.0327  1.0000
  Al  Al2       1.0  0.9458999999999999  0.32830000000000004  0.0327  1.0000
  Al  Al3       1.0  0.5541  0.32830000000000004  0.0327  1.0000
  Al  Al4       1.0  0.4459  0.6717  0.0327  1.0000
  Al  Al5       1.0  0.0541  0.17169999999999996  0.5327  1.0000
  Al  Al6       1.0  0.9458999999999999  0.8283  0.5327  1.0000
  Al  Al7       1.0  0.5541  0.8283  0.5327  1.0000
  Al  Al8       1.0  0.4459  0.17169999999999996  0.5327  1.0000
  O   O1        1.0  0.0564  0.1908  0.1877  1.0000
  O   O2        1.0  0.9436  0.8092  0.1877  1.0000
  O   O3        1.0  0.5564  0.8092  0.1877  1.0000
  O   O4        1.0  0.4436  0.1908  0.1877  1.0000
  O   O5        1.0  0.0564  0.6908  0.6877  1.0000
  O   O6        1.0  0.9436  0.30920000000000003  0.6877  1.0000
  O   O7        1.0  0.5564  0.30920000000000003  0.6877  1.0000
  O   O8        1.0  0.4436  0.6908  0.6877  1.0000
  O   O9        1.0  0.0  0.5  0.1412  1.0000
  O   O10       1.0  0.5  0.5  0.1412  1.0000
  O   O11       1.0  0.0  0.0  0.6412  1.0000
  O   O12       1.0  0.5  0.0  0.6412  1.0000
  O   O13       1.0  0.25  0.6849  0.15269999999999997  1.0000
  O   O14       1.0  0.75  0.31510000000000005  0.15269999999999997  1.0000
  O   O15       1.0  0.25  0.18489999999999984  0.6527  1.0000
  O   O16       1.0  0.75  0.8151  0.6527  1.0000
