data_image0
_chemical_formula_structural       Tb12Se24Cr4
_chemical_formula_sum              "Tb12 Se24 Cr4"
_cell_length_a       13.885
_cell_length_b       16.672
_cell_length_c       3.9215
_cell_angle_alpha    90.0
_cell_angle_beta     90.0
_cell_angle_gamma    90.0

_space_group_name_H-M_alt    "P 1"
_space_group_IT_number       1

loop_
  _space_group_symop_operation_xyz
  'x, y, z'

loop_
  _atom_site_type_symbol
  _atom_site_label
  _atom_site_symmetry_multiplicity
  _atom_site_fract_x
  _atom_site_fract_y
  _atom_site_fract_z
  _atom_site_occupancy
  Tb  Tb1       1.0  0.31977  0.14845  0.0  1.0000
  Tb  Tb2       1.0  0.68023  0.85155  0.0  1.0000
  Tb  Tb3       1.0  0.18023  0.64845  0.5  1.0000
  Tb  Tb4       1.0  0.81977  0.35155000000000003  0.5  1.0000
  Tb  Tb5       1.0  0.55147  0.27829  0.0  1.0000
  Tb  Tb6       1.0  0.44853  0.7217100000000001  0.0  1.0000
  Tb  Tb7       1.0  0.94853  0.77829  0.5  1.0000
  Tb  Tb8       1.0  0.05147000000000013  0.22171000000000002  0.5  1.0000
  Tb  Tb9       1.0  0.75776  0.09667  0.0  1.0000
  Tb  Tb10      1.0  0.24224  0.90333  0.0  1.0000
  Tb  Tb11      1.0  0.74224  0.59667  0.5  1.0000
  Tb  Tb12      1.0  0.25776  0.40332999999999997  0.5  1.0000
  Se  Se1       1.0  0.10299  0.75529  0.0  1.0000
  Se  Se2       1.0  0.89701  0.24470999999999998  0.0  1.0000
  Se  Se3       1.0  0.39701  0.25529  0.5  1.0000
  Se  Se4       1.0  0.60299  0.74471  0.5  1.0000
  Se  Se5       1.0  0.12187  0.10771  0.0  1.0000
  Se  Se6       1.0  0.87813  0.8922900000000001  0.0  1.0000
  Se  Se7       1.0  0.37812999999999997  0.60771  0.5  1.0000
  Se  Se8       1.0  0.6218699999999999  0.39229  0.5  1.0000
  Se  Se9       1.0  0.1895  0.29017  0.0  1.0000
  Se  Se10      1.0  0.8105  0.70983  0.0  1.0000
  Se  Se11      1.0  0.31049999999999994  0.79017  0.5  1.0000
  Se  Se12      1.0  0.6895  0.20983000000000002  0.5  1.0000
  Se  Se13      1.0  0.18107  0.5206  0.0  1.0000
  Se  Se14      1.0  0.8189299999999999  0.47940000000000005  0.0  1.0000
  Se  Se15      1.0  0.31893  0.020599999999999955  0.5  1.0000
  Se  Se16      1.0  0.6810700000000001  0.9794  0.5  1.0000
  Se  Se17      1.0  0.41863  0.4231  0.0  1.0000
  Se  Se18      1.0  0.5813699999999999  0.5769  0.0  1.0000
  Se  Se19      1.0  0.08137  0.9231000000000001  0.5  1.0000
  Se  Se20      1.0  0.9186300000000001  0.07690000000000002  0.5  1.0000
  Se  Se21      1.0  0.52314  0.09833  0.0  1.0000
  Se  Se22      1.0  0.47685999999999995  0.90167  0.0  1.0000
  Se  Se23      1.0  0.97686  0.59833  0.5  1.0000
  Se  Se24      1.0  0.02314000000000016  0.40167  0.5  1.0000
  Cr  Cr1       1.0  0.0  0.5  0.0  1.0000
  Cr  Cr2       1.0  0.5  0.0  0.5  1.0000
  Cr  Cr3       1.0  0.0  0.0  0.0  1.0000
  Cr  Cr4       1.0  0.5  0.5  0.5  1.0000
