data_image0
_chemical_formula_structural       P16O32
_chemical_formula_sum              "P16 O32"
_cell_length_a       6.9464
_cell_length_b       12.034
_cell_length_c       6.9463
_cell_angle_alpha    90.0
_cell_angle_beta     119.91399999999999
_cell_angle_gamma    90.0

_space_group_name_H-M_alt    "P 1"
_space_group_IT_number       1

loop_
  _space_group_symop_operation_xyz
  'x, y, z'

loop_
  _atom_site_type_symbol
  _atom_site_label
  _atom_site_symmetry_multiplicity
  _atom_site_fract_x
  _atom_site_fract_y
  _atom_site_fract_z
  _atom_site_occupancy
  P   P1        1.0  0.2826600000000001  0.09026  0.04006  1.0000
  P   P2        1.0  0.7173399999999999  0.09026  0.45994  1.0000
  P   P3        1.0  0.7826600000000001  0.59026  0.04006  1.0000
  P   P4        1.0  0.21733999999999995  0.59026  0.45994  1.0000
  P   P5        1.0  0.7173399999999999  0.9097399999999999  0.95994  1.0000
  P   P6        1.0  0.2826600000000001  0.9097399999999999  0.54006  1.0000
  P   P7        1.0  0.21733999999999995  0.40973999999999994  0.95994  1.0000
  P   P8        1.0  0.7826600000000001  0.40973999999999994  0.54006  1.0000
  P   P9        1.0  0.3181200000000001  0.35749  0.42525  1.0000
  P   P10       1.0  0.68188  0.35749  0.07474999999999998  1.0000
  P   P11       1.0  0.8181200000000002  0.8574899999999999  0.42525  1.0000
  P   P12       1.0  0.18187999999999996  0.8574899999999999  0.07474999999999998  1.0000
  P   P13       1.0  0.6818799999999999  0.6425099999999999  0.5747499999999999  1.0000
  P   P14       1.0  0.31812000000000007  0.6425099999999999  0.92525  1.0000
  P   P15       1.0  0.18187999999999988  0.14251000000000003  0.5747499999999999  1.0000
  P   P16       1.0  0.8181200000000002  0.14251000000000003  0.92525  1.0000
  O   O1        1.0  0.21169999999999997  0.4603  0.48179999999999995  0.5000
  O   O2        1.0  0.7883000000000001  0.4603  0.01820000000000005  0.5000
  O   O3        1.0  0.7117000000000001  0.9602999999999998  0.48179999999999995  0.5000
  O   O4        1.0  0.2883  0.9602999999999998  0.01820000000000005  0.5000
  O   O5        1.0  0.7883000000000001  0.5397  0.5182  0.5000
  O   O6        1.0  0.2117  0.5397  0.9818  0.5000
  O   O7        1.0  0.2883  0.039700000000000006  0.5182  0.5000
  O   O8        1.0  0.7117000000000001  0.039700000000000006  0.9818  0.5000
  O   O9        1.0  0.25  0.24999999999999994  0.5  0.5000
  O   O10       1.0  0.75  0.24999999999999994  0.0  0.5000
  O   O11       1.0  0.75  0.75  0.5  0.5000
  O   O12       1.0  0.25  0.75  0.0  0.5000
  O   O13       1.0  0.23220000000000002  0.3532  0.1704  0.5000
  O   O14       1.0  0.7678  0.3532  0.32959999999999995  0.5000
  O   O15       1.0  0.7322  0.8531999999999998  0.1704  0.5000
  O   O16       1.0  0.2678  0.8531999999999998  0.32959999999999995  0.5000
  O   O17       1.0  0.7678  0.6468  0.8296  0.5000
  O   O18       1.0  0.2322  0.6468  0.6704  0.5000
  O   O19       1.0  0.26780000000000004  0.14679999999999999  0.8296  0.5000
  O   O20       1.0  0.7322  0.14679999999999999  0.6704  0.5000
  O   O21       1.0  0.5  0.1336  0.25  0.5000
  O   O22       1.0  0.0  0.6335999999999999  0.25  0.5000
  O   O23       1.0  0.49999999999999994  0.8664  0.7499999999999999  0.5000
  O   O24       1.0  0.9999999999999999  0.36639999999999995  0.7499999999999999  0.5000
  O   O25       1.0  0.0792  0.1273  0.0656  0.5000
  O   O26       1.0  0.9208000000000001  0.1273  0.43439999999999995  0.5000
  O   O27       1.0  0.5792000000000002  0.6272999999999999  0.0656  0.5000
  O   O28       1.0  0.42079999999999995  0.6272999999999999  0.43439999999999995  0.5000
  O   O29       1.0  0.9208000000000001  0.8727  0.9343999999999999  0.5000
  O   O30       1.0  0.0792  0.8727  0.5656  0.5000
  O   O31       1.0  0.42079999999999995  0.37270000000000003  0.9343999999999999  0.5000
  O   O32       1.0  0.5792000000000002  0.37270000000000003  0.5656  0.5000
  N   N1        1.0  0.21169999999999997  0.4603  0.48179999999999995  0.5000
  N   N2        1.0  0.7883000000000001  0.4603  0.01820000000000005  0.5000
  N   N3        1.0  0.7117000000000001  0.9602999999999998  0.48179999999999995  0.5000
  N   N4        1.0  0.2883  0.9602999999999998  0.01820000000000005  0.5000
  N   N5        1.0  0.7883000000000001  0.5397  0.5182  0.5000
  N   N6        1.0  0.2117  0.5397  0.9818  0.5000
  N   N7        1.0  0.2883  0.039700000000000006  0.5182  0.5000
  N   N8        1.0  0.7117000000000001  0.039700000000000006  0.9818  0.5000
  N   N9        1.0  0.25  0.24999999999999994  0.5  0.5000
  N   N10       1.0  0.75  0.24999999999999994  0.0  0.5000
  N   N11       1.0  0.75  0.75  0.5  0.5000
  N   N12       1.0  0.25  0.75  0.0  0.5000
  N   N13       1.0  0.23220000000000002  0.3532  0.1704  0.5000
  N   N14       1.0  0.7678  0.3532  0.32959999999999995  0.5000
  N   N15       1.0  0.7322  0.8531999999999998  0.1704  0.5000
  N   N16       1.0  0.2678  0.8531999999999998  0.32959999999999995  0.5000
  N   N17       1.0  0.7678  0.6468  0.8296  0.5000
  N   N18       1.0  0.2322  0.6468  0.6704  0.5000
  N   N19       1.0  0.26780000000000004  0.14679999999999999  0.8296  0.5000
  N   N20       1.0  0.7322  0.14679999999999999  0.6704  0.5000
  N   N21       1.0  0.5  0.1336  0.25  0.5000
  N   N22       1.0  0.0  0.6335999999999999  0.25  0.5000
  N   N23       1.0  0.49999999999999994  0.8664  0.7499999999999999  0.5000
  N   N24       1.0  0.9999999999999999  0.36639999999999995  0.7499999999999999  0.5000
  N   N25       1.0  0.0792  0.1273  0.0656  0.5000
  N   N26       1.0  0.9208000000000001  0.1273  0.43439999999999995  0.5000
  N   N27       1.0  0.5792000000000002  0.6272999999999999  0.0656  0.5000
  N   N28       1.0  0.42079999999999995  0.6272999999999999  0.43439999999999995  0.5000
  N   N29       1.0  0.9208000000000001  0.8727  0.9343999999999999  0.5000
  N   N30       1.0  0.0792  0.8727  0.5656  0.5000
  N   N31       1.0  0.42079999999999995  0.37270000000000003  0.9343999999999999  0.5000
  N   N32       1.0  0.5792000000000002  0.37270000000000003  0.5656  0.5000
