data_image0
_chemical_formula_structural       La16Rh32P36
_chemical_formula_sum              "La16 Rh32 P36"
_cell_length_a       13.031
_cell_length_b       18.932
_cell_length_c       5.767
_cell_angle_alpha    90.0
_cell_angle_beta     90.0
_cell_angle_gamma    90.0

_space_group_name_H-M_alt    "P 1"
_space_group_IT_number       1

loop_
  _space_group_symop_operation_xyz
  'x, y, z'

loop_
  _atom_site_type_symbol
  _atom_site_label
  _atom_site_symmetry_multiplicity
  _atom_site_fract_x
  _atom_site_fract_y
  _atom_site_fract_z
  _atom_site_occupancy
  La  La1       1.0  0.0  0.63951  0.25  1.0000
  La  La2       1.0  0.0  0.36049  0.75  1.0000
  La  La3       1.0  0.5  0.13951000000000002  0.25  1.0000
  La  La4       1.0  0.5  0.8604900000000001  0.75  1.0000
  La  La5       1.0  0.22449  0.364851  0.25  1.0000
  La  La6       1.0  0.77551  0.635149  0.75  1.0000
  La  La7       1.0  0.77551  0.364851  0.25  1.0000
  La  La8       1.0  0.22449  0.635149  0.75  1.0000
  La  La9       1.0  0.72449  0.8648510000000001  0.25  1.0000
  La  La10      1.0  0.27551000000000003  0.13514900000000002  0.75  1.0000
  La  La11      1.0  0.27551000000000003  0.8648510000000001  0.25  1.0000
  La  La12      1.0  0.72449  0.13514900000000002  0.75  1.0000
  La  La13      1.0  0.0  0.11059000000000001  0.25  1.0000
  La  La14      1.0  0.0  0.88941  0.75  1.0000
  La  La15      1.0  0.5  0.61059  0.25  1.0000
  La  La16      1.0  0.5  0.38941  0.75  1.0000
  Rh  Rh1       1.0  0.39431  0.0  0.0  1.0000
  Rh  Rh2       1.0  0.6056900000000001  0.0  0.5  1.0000
  Rh  Rh3       1.0  0.8943099999999998  0.5  0.0  1.0000
  Rh  Rh4       1.0  0.10568999999999999  0.5  0.5  1.0000
  Rh  Rh5       1.0  0.6056900000000001  0.0  0.0  1.0000
  Rh  Rh6       1.0  0.39431  0.0  0.5  1.0000
  Rh  Rh7       1.0  0.10568999999999999  0.5  0.0  1.0000
  Rh  Rh8       1.0  0.8943099999999998  0.5  0.5  1.0000
  Rh  Rh9       1.0  0.0  0.29182  0.25  1.0000
  Rh  Rh10      1.0  0.0  0.70818  0.75  1.0000
  Rh  Rh11      1.0  0.5  0.79182  0.25  1.0000
  Rh  Rh12      1.0  0.5  0.20817999999999998  0.75  1.0000
  Rh  Rh13      1.0  0.0  0.81623  0.25  1.0000
  Rh  Rh14      1.0  0.0  0.18377  0.75  1.0000
  Rh  Rh15      1.0  0.5  0.31623  0.25  1.0000
  Rh  Rh16      1.0  0.5  0.68377  0.75  1.0000
  Rh  Rh17      1.0  0.25656  0.196791  0.25  1.0000
  Rh  Rh18      1.0  0.7434399999999999  0.8032090000000001  0.75  1.0000
  Rh  Rh19      1.0  0.7434399999999999  0.196791  0.25  1.0000
  Rh  Rh20      1.0  0.25656  0.8032090000000001  0.75  1.0000
  Rh  Rh21      1.0  0.75656  0.6967909999999999  0.25  1.0000
  Rh  Rh22      1.0  0.24344  0.303209  0.75  1.0000
  Rh  Rh23      1.0  0.24344  0.6967909999999999  0.25  1.0000
  Rh  Rh24      1.0  0.75656  0.303209  0.75  1.0000
  Rh  Rh25      1.0  0.18096  0.0  0.0  1.0000
  Rh  Rh26      1.0  0.81904  0.0  0.5  1.0000
  Rh  Rh27      1.0  0.6809599999999999  0.5  0.0  1.0000
  Rh  Rh28      1.0  0.31904  0.5  0.5  1.0000
  Rh  Rh29      1.0  0.81904  0.0  0.0  1.0000
  Rh  Rh30      1.0  0.18096  0.0  0.5  1.0000
  Rh  Rh31      1.0  0.31904  0.5  0.0  1.0000
  Rh  Rh32      1.0  0.6809599999999999  0.5  0.5  1.0000
  P   P1        1.0  0.0  0.42609  0.25  1.0000
  P   P2        1.0  0.0  0.5739099999999999  0.75  1.0000
  P   P3        1.0  0.5  0.9260900000000001  0.25  1.0000
  P   P4        1.0  0.5  0.07390999999999998  0.75  1.0000
  P   P5        1.0  0.28255  0.07097  0.25  1.0000
  P   P6        1.0  0.7174499999999999  0.92903  0.75  1.0000
  P   P7        1.0  0.7174499999999999  0.07097  0.25  1.0000
  P   P8        1.0  0.28255  0.92903  0.75  1.0000
  P   P9        1.0  0.78255  0.57097  0.25  1.0000
  P   P10       1.0  0.21744999999999995  0.4290300000000001  0.75  1.0000
  P   P11       1.0  0.21744999999999995  0.57097  0.25  1.0000
  P   P12       1.0  0.78255  0.4290300000000001  0.75  1.0000
  P   P13       1.0  0.37608  0.25956  0.00218  1.0000
  P   P14       1.0  0.62392  0.74044  0.50218  1.0000
  P   P15       1.0  0.62392  0.25956  0.49782  1.0000
  P   P16       1.0  0.37608  0.74044  0.99782  1.0000
  P   P17       1.0  0.87608  0.75956  0.00218  1.0000
  P   P18       1.0  0.12391999999999996  0.24044  0.50218  1.0000
  P   P19       1.0  0.12391999999999996  0.75956  0.49782  1.0000
  P   P20       1.0  0.87608  0.24044  0.99782  1.0000
  P   P21       1.0  0.62392  0.74044  0.99782  1.0000
  P   P22       1.0  0.37608  0.25956  0.49782  1.0000
  P   P23       1.0  0.37608  0.74044  0.50218  1.0000
  P   P24       1.0  0.62392  0.25956  0.00218  1.0000
  P   P25       1.0  0.12391999999999996  0.24044  0.99782  1.0000
  P   P26       1.0  0.87608  0.75956  0.49782  1.0000
  P   P27       1.0  0.87608  0.24044  0.50218  1.0000
  P   P28       1.0  0.12391999999999996  0.75956  0.00218  1.0000
  P   P29       1.0  0.42006  0.43638999999999994  0.25  1.0000
  P   P30       1.0  0.57994  0.56361  0.75  1.0000
  P   P31       1.0  0.57994  0.43638999999999994  0.25  1.0000
  P   P32       1.0  0.42006  0.56361  0.75  1.0000
  P   P33       1.0  0.92006  0.9363899999999998  0.25  1.0000
  P   P34       1.0  0.07994000000000001  0.06361000000000006  0.75  1.0000
  P   P35       1.0  0.07994000000000001  0.9363899999999998  0.25  1.0000
  P   P36       1.0  0.92006  0.06361000000000006  0.75  1.0000
