data_image0
_chemical_formula_structural       Na8B8C32N32
_chemical_formula_sum              "Na8 B8 C32 N32"
_cell_length_a       11.68
_cell_length_b       11.68
_cell_length_c       11.68
_cell_angle_alpha    90.0
_cell_angle_beta     90.0
_cell_angle_gamma    90.0

_space_group_name_H-M_alt    "P 1"
_space_group_IT_number       1

loop_
  _space_group_symop_operation_xyz
  'x, y, z'

loop_
  _atom_site_type_symbol
  _atom_site_label
  _atom_site_symmetry_multiplicity
  _atom_site_fract_x
  _atom_site_fract_y
  _atom_site_fract_z
  _atom_site_occupancy
  Na  Na1       1.0  0.3749999999999999  0.3749999999999999  0.3749999999999999  1.0000
  Na  Na2       1.0  0.37500000000000006  0.8749999999999999  0.8749999999999999  1.0000
  Na  Na3       1.0  0.8749999999999999  0.8749999999999999  0.37500000000000006  1.0000
  Na  Na4       1.0  0.8749999999999999  0.37500000000000006  0.8749999999999999  1.0000
  Na  Na5       1.0  0.12499999999999999  0.625  0.12500000000000006  1.0000
  Na  Na6       1.0  0.625  0.625  0.625  1.0000
  Na  Na7       1.0  0.625  0.12500000000000006  0.12499999999999999  1.0000
  Na  Na8       1.0  0.12500000000000006  0.12499999999999999  0.625  1.0000
  B   B1        1.0  0.12499999999999997  0.12499999999999997  0.12499999999999997  1.0000
  B   B2        1.0  0.625  0.12499999999999999  0.625  1.0000
  B   B3        1.0  0.12499999999999999  0.625  0.625  1.0000
  B   B4        1.0  0.625  0.625  0.12499999999999999  1.0000
  B   B5        1.0  0.8749999999999999  0.37499999999999994  0.37499999999999994  1.0000
  B   B6        1.0  0.8749999999999999  0.8749999999999999  0.8749999999999999  1.0000
  B   B7        1.0  0.37499999999999994  0.37499999999999994  0.8749999999999999  1.0000
  B   B8        1.0  0.37499999999999994  0.8749999999999999  0.37499999999999994  1.0000
  C   C1        1.0  0.20286  0.20286  0.20286  1.0000
  C   C2        1.0  0.5471399999999998  0.04713999999999998  0.7028599999999999  1.0000
  C   C3        1.0  0.04713999999999998  0.7028599999999999  0.5471399999999998  1.0000
  C   C4        1.0  0.7028599999999999  0.5471399999999998  0.04713999999999998  1.0000
  C   C5        1.0  0.9528599999999999  0.45286000000000004  0.29713999999999996  1.0000
  C   C6        1.0  0.79714  0.79714  0.79714  1.0000
  C   C7        1.0  0.45286000000000004  0.29713999999999996  0.9528599999999999  1.0000
  C   C8        1.0  0.29713999999999996  0.9528599999999999  0.45286000000000004  1.0000
  C   C9        1.0  0.20286  0.7028599999999999  0.7028599999999999  1.0000
  C   C10       1.0  0.5471399999999998  0.5471399999999998  0.20286  1.0000
  C   C11       1.0  0.04713999999999998  0.20286  0.04713999999999998  1.0000
  C   C12       1.0  0.7028599999999999  0.04713999999999998  0.5471399999999998  1.0000
  C   C13       1.0  0.9528599999999999  0.9528599999999999  0.79714  1.0000
  C   C14       1.0  0.79714  0.29713999999999996  0.29713999999999996  1.0000
  C   C15       1.0  0.45286000000000004  0.79714  0.45286000000000004  1.0000
  C   C16       1.0  0.29713999999999996  0.45286000000000004  0.9528599999999999  1.0000
  C   C17       1.0  0.7028599999999999  0.20286  0.7028599999999999  1.0000
  C   C18       1.0  0.04713999999999998  0.04713999999999998  0.20286  1.0000
  C   C19       1.0  0.5471399999999998  0.7028599999999999  0.04713999999999998  1.0000
  C   C20       1.0  0.20286  0.5471399999999998  0.5471399999999998  1.0000
  C   C21       1.0  0.45286000000000004  0.45286000000000004  0.79714  1.0000
  C   C22       1.0  0.29713999999999996  0.79714  0.29713999999999996  1.0000
  C   C23       1.0  0.9528599999999999  0.29713999999999996  0.45286000000000004  1.0000
  C   C24       1.0  0.79714  0.9528599999999999  0.9528599999999999  1.0000
  C   C25       1.0  0.7028599999999999  0.7028599999999999  0.20286  1.0000
  C   C26       1.0  0.04713999999999998  0.5471399999999998  0.7028599999999999  1.0000
  C   C27       1.0  0.5471399999999998  0.20286  0.5471399999999998  1.0000
  C   C28       1.0  0.20286  0.04713999999999998  0.04713999999999998  1.0000
  C   C29       1.0  0.45286000000000004  0.9528599999999999  0.29713999999999996  1.0000
  C   C30       1.0  0.29713999999999996  0.29713999999999996  0.79714  1.0000
  C   C31       1.0  0.9528599999999999  0.79714  0.9528599999999999  1.0000
  C   C32       1.0  0.79714  0.45286000000000004  0.45286000000000004  1.0000
  N   N1        1.0  0.25872  0.25872  0.25872  1.0000
  N   N2        1.0  0.49127999999999994  0.9912799999999998  0.7587200000000001  1.0000
  N   N3        1.0  0.9912799999999998  0.7587200000000001  0.49127999999999994  1.0000
  N   N4        1.0  0.7587200000000001  0.49127999999999994  0.9912799999999998  1.0000
  N   N5        1.0  0.00872000000000006  0.50872  0.24128  1.0000
  N   N6        1.0  0.7412799999999998  0.7412799999999998  0.7412799999999998  1.0000
  N   N7        1.0  0.50872  0.24128  0.00872000000000006  1.0000
  N   N8        1.0  0.24128  0.00872000000000006  0.50872  1.0000
  N   N9        1.0  0.25872  0.7587200000000001  0.7587200000000001  1.0000
  N   N10       1.0  0.49127999999999994  0.49127999999999994  0.25872  1.0000
  N   N11       1.0  0.9912799999999998  0.25872  0.9912799999999998  1.0000
  N   N12       1.0  0.7587200000000001  0.9912799999999998  0.49127999999999994  1.0000
  N   N13       1.0  0.00872000000000006  0.00872000000000006  0.7412799999999998  1.0000
  N   N14       1.0  0.7412799999999998  0.24128  0.24128  1.0000
  N   N15       1.0  0.50872  0.7412799999999998  0.50872  1.0000
  N   N16       1.0  0.24128  0.50872  0.00872000000000006  1.0000
  N   N17       1.0  0.7587200000000001  0.25872  0.7587200000000001  1.0000
  N   N18       1.0  0.9912799999999998  0.9912799999999998  0.25872  1.0000
  N   N19       1.0  0.49127999999999994  0.7587200000000001  0.9912799999999998  1.0000
  N   N20       1.0  0.25872  0.49127999999999994  0.49127999999999994  1.0000
  N   N21       1.0  0.50872  0.50872  0.7412799999999998  1.0000
  N   N22       1.0  0.24128  0.7412799999999998  0.24128  1.0000
  N   N23       1.0  0.00872000000000006  0.24128  0.50872  1.0000
  N   N24       1.0  0.7412799999999998  0.00872000000000006  0.00872000000000006  1.0000
  N   N25       1.0  0.7587200000000001  0.7587200000000001  0.25872  1.0000
  N   N26       1.0  0.9912799999999998  0.49127999999999994  0.7587200000000001  1.0000
  N   N27       1.0  0.49127999999999994  0.25872  0.49127999999999994  1.0000
  N   N28       1.0  0.25872  0.9912799999999998  0.9912799999999998  1.0000
  N   N29       1.0  0.50872  0.00872000000000006  0.24128  1.0000
  N   N30       1.0  0.24128  0.24128  0.7412799999999998  1.0000
  N   N31       1.0  0.00872000000000006  0.7412799999999998  0.00872000000000006  1.0000
  N   N32       1.0  0.7412799999999998  0.50872  0.50872  1.0000
