data_image0
_chemical_formula_structural       O8H8N8C16H24C4H8
_chemical_formula_sum              "O8 H40 N8 C20"
_cell_length_a       10.852
_cell_length_b       10.852
_cell_length_c       5.9751
_cell_angle_alpha    90.0
_cell_angle_beta     90.0
_cell_angle_gamma    90.0

_space_group_name_H-M_alt    "P 1"
_space_group_IT_number       1

loop_
  _space_group_symop_operation_xyz
  'x, y, z'

loop_
  _atom_site_type_symbol
  _atom_site_label
  _atom_site_symmetry_multiplicity
  _atom_site_fract_x
  _atom_site_fract_y
  _atom_site_fract_z
  _atom_site_occupancy
  O   O1        1.0  0.33898000000000006  0.40570000000000006  0.2077  1.0000
  O   O2        1.0  0.66102  0.5942999999999999  0.2077  1.0000
  O   O3        1.0  0.40570000000000006  0.66102  0.7923  1.0000
  O   O4        1.0  0.5942999999999999  0.33898000000000006  0.7923  1.0000
  O   O5        1.0  0.8389800000000001  0.09429999999999994  0.7077  1.0000
  O   O6        1.0  0.16101999999999994  0.9057000000000002  0.7077  1.0000
  O   O7        1.0  0.9057000000000002  0.8389800000000001  0.29230000000000006  1.0000
  O   O8        1.0  0.09429999999999994  0.16101999999999994  0.29230000000000006  1.0000
  H   H1        1.0  0.39  0.3830000000000001  0.076  1.0000
  H   H2        1.0  0.61  0.617  0.076  1.0000
  H   H3        1.0  0.3830000000000001  0.61  0.9240000000000002  1.0000
  H   H4        1.0  0.617  0.39  0.9240000000000002  1.0000
  H   H5        1.0  0.8900000000000001  0.11699999999999994  0.5760000000000001  1.0000
  H   H6        1.0  0.10999999999999999  0.883  0.5760000000000001  1.0000
  H   H7        1.0  0.883  0.8900000000000001  0.42400000000000004  1.0000
  H   H8        1.0  0.11699999999999994  0.10999999999999999  0.42400000000000004  1.0000
  N   N1        1.0  0.31472  0.5287  0.152  1.0000
  N   N2        1.0  0.6852800000000001  0.47130000000000005  0.152  1.0000
  N   N3        1.0  0.5287  0.6852800000000001  0.8480000000000001  1.0000
  N   N4        1.0  0.47130000000000005  0.31472  0.8480000000000001  1.0000
  N   N5        1.0  0.8147200000000001  0.9713  0.6520000000000001  1.0000
  N   N6        1.0  0.18528  0.02869999999999995  0.6520000000000001  1.0000
  N   N7        1.0  0.02869999999999995  0.8147200000000001  0.348  1.0000
  N   N8        1.0  0.9713  0.18528  0.348  1.0000
  C   C1        1.0  0.24110000000000004  0.58023  0.2909  1.0000
  C   C2        1.0  0.7589  0.41977  0.2909  1.0000
  C   C3        1.0  0.58023  0.7589  0.7091000000000001  1.0000
  C   C4        1.0  0.41977  0.24110000000000004  0.7091000000000001  1.0000
  C   C5        1.0  0.7411000000000001  0.91977  0.7908999999999999  1.0000
  C   C6        1.0  0.25889999999999996  0.08023000000000002  0.7908999999999999  1.0000
  C   C7        1.0  0.08023000000000002  0.7411000000000001  0.20910000000000004  1.0000
  C   C8        1.0  0.91977  0.25889999999999996  0.20910000000000004  1.0000
  C   C9        1.0  0.18573  0.51634  0.4866  1.0000
  C   C10       1.0  0.81427  0.48366  0.4866  1.0000
  C   C11       1.0  0.51634  0.81427  0.5134000000000001  1.0000
  C   C12       1.0  0.48366  0.18573  0.5134000000000001  1.0000
  C   C13       1.0  0.68573  0.98366  0.9866  1.0000
  C   C14       1.0  0.31427  0.01634000000000002  0.9866  1.0000
  C   C15       1.0  0.01634000000000002  0.68573  0.013400000000000023  1.0000
  C   C16       1.0  0.98366  0.31427  0.013400000000000023  1.0000
  H   H9        1.0  0.122  0.565  0.557  1.0000
  H   H10       1.0  0.8780000000000001  0.4350000000000001  0.557  1.0000
  H   H11       1.0  0.565  0.8780000000000001  0.44299999999999995  1.0000
  H   H12       1.0  0.4350000000000001  0.122  0.44299999999999995  1.0000
  H   H13       1.0  0.622  0.935  0.05699999999999995  1.0000
  H   H14       1.0  0.378  0.06499999999999995  0.05699999999999995  1.0000
  H   H15       1.0  0.06499999999999995  0.622  0.943  1.0000
  H   H16       1.0  0.935  0.378  0.943  1.0000
  H   H17       1.0  0.149  0.436  0.44700000000000006  1.0000
  H   H18       1.0  0.851  0.5640000000000001  0.44700000000000006  1.0000
  H   H19       1.0  0.436  0.851  0.553  1.0000
  H   H20       1.0  0.5640000000000001  0.149  0.553  1.0000
  H   H21       1.0  0.6490000000000001  0.064  0.9470000000000001  1.0000
  H   H22       1.0  0.351  0.936  0.9470000000000001  1.0000
  H   H23       1.0  0.936  0.6490000000000001  0.052999999999999936  1.0000
  H   H24       1.0  0.064  0.351  0.052999999999999936  1.0000
  H   H25       1.0  0.248  0.496  0.597  1.0000
  H   H26       1.0  0.7520000000000001  0.504  0.597  1.0000
  H   H27       1.0  0.496  0.7520000000000001  0.403  1.0000
  H   H28       1.0  0.504  0.248  0.403  1.0000
  H   H29       1.0  0.748  0.0040000000000000036  0.09699999999999998  1.0000
  H   H30       1.0  0.252  0.9960000000000001  0.09699999999999998  1.0000
  H   H31       1.0  0.9960000000000001  0.748  0.903  1.0000
  H   H32       1.0  0.0040000000000000036  0.252  0.903  1.0000
  C   C17       1.0  0.21494  0.71494  0.25  1.0000
  C   C18       1.0  0.7850600000000001  0.28506  0.25  1.0000
  C   C19       1.0  0.71494  0.7850600000000001  0.75  1.0000
  C   C20       1.0  0.28506  0.21494  0.75  1.0000
  H   H33       1.0  0.263  0.744  0.121  1.0000
  H   H34       1.0  0.737  0.256  0.121  1.0000
  H   H35       1.0  0.744  0.737  0.879  1.0000
  H   H36       1.0  0.256  0.263  0.879  1.0000
  H   H37       1.0  0.7630000000000001  0.756  0.621  1.0000
  H   H38       1.0  0.23700000000000002  0.244  0.621  1.0000
  H   H39       1.0  0.244  0.7630000000000001  0.379  1.0000
  H   H40       1.0  0.756  0.23700000000000002  0.379  1.0000
