data_image0
_chemical_formula_structural       Nb8Co8Te16
_chemical_formula_sum              "Nb8 Co8 Te16"
_cell_length_a       7.84
_cell_length_b       14.431
_cell_length_c       6.237
_cell_angle_alpha    90.0
_cell_angle_beta     90.0
_cell_angle_gamma    90.0

_space_group_name_H-M_alt    "P 1"
_space_group_IT_number       1

loop_
  _space_group_symop_operation_xyz
  'x, y, z'

loop_
  _atom_site_type_symbol
  _atom_site_label
  _atom_site_symmetry_multiplicity
  _atom_site_fract_x
  _atom_site_fract_y
  _atom_site_fract_z
  _atom_site_occupancy
  Nb  Nb1       1.0  0.2968  0.5  0.0  1.0000
  Nb  Nb2       1.0  0.2968  0.0  0.5  1.0000
  Nb  Nb3       1.0  0.7032  0.5  0.0  1.0000
  Nb  Nb4       1.0  0.7032  0.0  0.5  1.0000
  Nb  Nb5       1.0  0.7968  0.0  0.0  1.0000
  Nb  Nb6       1.0  0.7968  0.5  0.5  1.0000
  Nb  Nb7       1.0  0.2032  0.0  0.0  1.0000
  Nb  Nb8       1.0  0.2032  0.5  0.5  1.0000
  Co  Co1       1.0  0.0  0.4413  0.1473  1.0000
  Co  Co2       1.0  0.0  0.5587  0.8527  1.0000
  Co  Co3       1.0  0.0  0.058699999999999974  0.6473000000000001  1.0000
  Co  Co4       1.0  0.0  0.9413  0.35270000000000007  1.0000
  Co  Co5       1.0  0.5  0.9413  0.1473  1.0000
  Co  Co6       1.0  0.5  0.058699999999999974  0.8527  1.0000
  Co  Co7       1.0  0.5  0.5587  0.6473000000000001  1.0000
  Co  Co8       1.0  0.5  0.4413  0.35270000000000007  1.0000
  Te  Te1       1.0  0.25  0.3393  0.25  1.0000
  Te  Te2       1.0  0.25  0.6607000000000002  0.75  1.0000
  Te  Te3       1.0  0.25  0.1607  0.75  1.0000
  Te  Te4       1.0  0.25  0.8392999999999999  0.25  1.0000
  Te  Te5       1.0  0.75  0.6607000000000002  0.75  1.0000
  Te  Te6       1.0  0.75  0.3393  0.25  1.0000
  Te  Te7       1.0  0.75  0.8392999999999999  0.25  1.0000
  Te  Te8       1.0  0.75  0.1607  0.75  1.0000
  Te  Te9       1.0  0.5  0.6127  0.2518  1.0000
  Te  Te10      1.0  0.5  0.3873  0.7482  1.0000
  Te  Te11      1.0  0.5  0.8873  0.7518  1.0000
  Te  Te12      1.0  0.5  0.11270000000000002  0.2482  1.0000
  Te  Te13      1.0  0.0  0.11270000000000002  0.2518  1.0000
  Te  Te14      1.0  0.0  0.8873  0.7482  1.0000
  Te  Te15      1.0  0.0  0.3873  0.7518  1.0000
  Te  Te16      1.0  0.0  0.6127  0.2482  1.0000
