data_image0
_chemical_formula_structural       Ti3O30C12N3H24
_chemical_formula_sum              "Ti3 O30 C12 N3 H24"
_cell_length_a       8.939
_cell_length_b       8.939
_cell_length_c       10.893
_cell_angle_alpha    90.0
_cell_angle_beta     90.0
_cell_angle_gamma    119.99999999999999

_space_group_name_H-M_alt    "P 1"
_space_group_IT_number       1

loop_
  _space_group_symop_operation_xyz
  'x, y, z'

loop_
  _atom_site_type_symbol
  _atom_site_label
  _atom_site_symmetry_multiplicity
  _atom_site_fract_x
  _atom_site_fract_y
  _atom_site_fract_z
  _atom_site_occupancy
  Ti  Ti1       1.0  0.0  0.5  0.83333  1.0000
  Ti  Ti2       1.0  0.5  0.5  0.16666333333333339  1.0000
  Ti  Ti3       1.0  0.5  0.0  0.49999666666666664  1.0000
  O   O1        1.0  0.76296  0.4490000000000001  0.72365  1.0000
  O   O2        1.0  0.5509999999999999  0.31395999999999996  0.056983333333333386  1.0000
  O   O3        1.0  0.6860400000000001  0.23704000000000006  0.3903166666666667  1.0000
  O   O4        1.0  0.23704000000000003  0.5509999999999999  0.72365  1.0000
  O   O5        1.0  0.4490000000000001  0.6860400000000001  0.056983333333333386  1.0000
  O   O6        1.0  0.3139599999999999  0.76296  0.3903166666666667  1.0000
  O   O7        1.0  0.4490000000000001  0.76296  0.6096833333333334  1.0000
  O   O8        1.0  0.3139599999999999  0.5509999999999999  0.27635  1.0000
  O   O9        1.0  0.23704000000000003  0.6860400000000001  0.9430166666666666  1.0000
  O   O10       1.0  0.5509999999999999  0.23704000000000006  0.6096833333333334  1.0000
  O   O11       1.0  0.6860400000000001  0.4490000000000001  0.27635  1.0000
  O   O12       1.0  0.7629600000000001  0.31395999999999996  0.9430166666666666  1.0000
  O   O13       1.0  0.92389  0.2724900000000001  0.72987  1.0000
  O   O14       1.0  0.7275100000000001  0.6514000000000001  0.06320333333333328  1.0000
  O   O15       1.0  0.3486  0.07611000000000001  0.3965366666666666  1.0000
  O   O16       1.0  0.07611000000000007  0.72751  0.72987  1.0000
  O   O17       1.0  0.27249000000000007  0.3486  0.06320333333333328  1.0000
  O   O18       1.0  0.6514000000000001  0.9238900000000001  0.3965366666666666  1.0000
  O   O19       1.0  0.2724900000000001  0.9238900000000001  0.6034633333333332  1.0000
  O   O20       1.0  0.6514  0.72751  0.27013  1.0000
  O   O21       1.0  0.07611000000000001  0.3486  0.9367966666666666  1.0000
  O   O22       1.0  0.72751  0.07611000000000001  0.6034633333333332  1.0000
  O   O23       1.0  0.3486  0.2724900000000001  0.27013  1.0000
  O   O24       1.0  0.92389  0.6514000000000001  0.9367966666666666  1.0000
  O   O25       1.0  0.7502000000000002  0.7502000000000002  0.6667  1.0000
  O   O26       1.0  0.24979999999999994  0.0  3.333333333332966e-05  1.0000
  O   O27       1.0  7.01759069494575e-18  0.24979999999999994  0.3333666666666666  1.0000
  O   O28       1.0  0.24979999999999994  0.24979999999999994  0.6667  1.0000
  O   O29       1.0  0.7502000000000001  0.0  3.333333333332966e-05  1.0000
  O   O30       1.0  6.237134834412651e-17  0.7502000000000002  0.3333666666666666  1.0000
  C   C1        1.0  0.6917500000000002  0.30825000000000014  0.6667  1.0000
  C   C2        1.0  0.69175  0.38350000000000006  3.333333333332966e-05  1.0000
  C   C3        1.0  0.6165000000000002  0.30824999999999997  0.3333666666666666  1.0000
  C   C4        1.0  0.30824999999999997  0.69175  0.6667  1.0000
  C   C5        1.0  0.30825000000000014  0.6165000000000002  3.333333333332966e-05  1.0000
  C   C6        1.0  0.38350000000000006  0.6917500000000002  0.3333666666666666  1.0000
  C   C7        1.0  0.7895100000000003  0.21049000000000007  0.6667  1.0000
  C   C8        1.0  0.7895100000000002  0.5790200000000002  3.333333333332966e-05  1.0000
  C   C9        1.0  0.42097999999999997  0.21048999999999987  0.3333666666666666  1.0000
  C   C10       1.0  0.21048999999999984  0.7895099999999999  0.6667  1.0000
  C   C11       1.0  0.21049000000000007  0.42097999999999997  3.333333333332966e-05  1.0000
  C   C12       1.0  0.5790200000000001  0.7895100000000002  0.3333666666666666  1.0000
  N   N1        1.0  0.0  0.0  0.16667  1.0000
  N   N2        1.0  0.0  0.0  0.5000033333333334  1.0000
  N   N3        1.0  0.0  0.0  0.8333366666666666  1.0000
  H   H1        1.0  0.10432  0.01563000000000001  0.11621  1.0000
  H   H2        1.0  0.98437  0.08869  0.4495433333333333  1.0000
  H   H3        1.0  0.9113100000000001  0.8956800000000001  0.7828766666666668  1.0000
  H   H4        1.0  0.89568  0.9843700000000001  0.11621  1.0000
  H   H5        1.0  0.015630000000000078  0.9113100000000002  0.4495433333333333  1.0000
  H   H6        1.0  0.08868999999999999  0.10432000000000001  0.7828766666666668  1.0000
  H   H7        1.0  0.01563000000000001  0.10432000000000001  0.21712333333333333  1.0000
  H   H8        1.0  0.08869000000000003  0.9843700000000001  0.88379  1.0000
  H   H9        1.0  0.89568  0.9113100000000002  0.5504566666666666  1.0000
  H   H10       1.0  0.98437  0.8956800000000001  0.21712333333333333  1.0000
  H   H11       1.0  0.9113100000000001  0.01563000000000001  0.88379  1.0000
  H   H12       1.0  0.10432000000000001  0.08869  0.5504566666666666  1.0000
  H   H13       1.0  0.7499500000000001  0.64082  0.68793  1.0000
  H   H14       1.0  0.3591800000000001  0.10913000000000019  0.021263333333333412  1.0000
  H   H15       1.0  0.8908699999999998  0.2500499999999999  0.35459666666666667  1.0000
  H   H16       1.0  0.25004999999999994  0.3591800000000001  0.68793  1.0000
  H   H17       1.0  0.6408200000000001  0.8908699999999999  0.021263333333333412  1.0000
  H   H18       1.0  0.10913000000000017  0.7499500000000001  0.35459666666666667  1.0000
  H   H19       1.0  0.64082  0.7499500000000001  0.6454033333333333  1.0000
  H   H20       1.0  0.10913000000000021  0.3591800000000001  0.31206999999999996  1.0000
  H   H21       1.0  0.25004999999999994  0.8908699999999999  0.9787366666666667  1.0000
  H   H22       1.0  0.35918000000000005  0.2500499999999999  0.6454033333333333  1.0000
  H   H23       1.0  0.8908699999999998  0.64082  0.31206999999999996  1.0000
  H   H24       1.0  0.7499500000000001  0.10913000000000019  0.9787366666666667  1.0000
