data_image0
_chemical_formula_structural       N2B2
_chemical_formula_sum              "N2 B2"
_cell_length_a       2.51
_cell_length_b       2.5099999999999993
_cell_length_c       6.69
_cell_angle_alpha    90.0
_cell_angle_beta     90.0
_cell_angle_gamma    119.99999999999999

_space_group_name_H-M_alt    "P 1"
_space_group_IT_number       1

loop_
  _space_group_symop_operation_xyz
  'x, y, z'

loop_
  _atom_site_type_symbol
  _atom_site_label
  _atom_site_symmetry_multiplicity
  _atom_site_fract_x
  _atom_site_fract_y
  _atom_site_fract_z
  _atom_site_occupancy
  N   N1        1.0  0.0  0.0  0.0  1.0000
  N   N2        1.0  0.0  0.0  0.4999999999999999  1.0000
  B   B1        1.0  0.33330000000000004  0.6667000000000001  0.04999999999999999  1.0000
  B   B2        1.0  0.6667  0.3333  0.9499999999999998  1.0000
