data_image0
_chemical_formula_structural       Dy8P40O112
_chemical_formula_sum              "Dy8 P40 O112"
_cell_length_a       12.8934
_cell_length_b       12.7756
_cell_length_c       12.441499999999998
_cell_angle_alpha    90.0
_cell_angle_beta     91.313
_cell_angle_gamma    90.0

_space_group_name_H-M_alt    "P 1"
_space_group_IT_number       1

loop_
  _space_group_symop_operation_xyz
  'x, y, z'

loop_
  _atom_site_type_symbol
  _atom_site_label
  _atom_site_symmetry_multiplicity
  _atom_site_fract_x
  _atom_site_fract_y
  _atom_site_fract_z
  _atom_site_occupancy
  Dy  Dy1       1.0  0.0  0.5218699999999998  0.25  1.0000
  Dy  Dy2       1.0  0.5  0.021869999999999834  0.25  1.0000
  Dy  Dy3       1.0  0.0  0.4781300000000001  0.75  1.0000
  Dy  Dy4       1.0  0.5  0.97813  0.75  1.0000
  Dy  Dy5       1.0  0.0  0.9688199999999999  0.25  1.0000
  Dy  Dy6       1.0  0.5  0.46881999999999996  0.25  1.0000
  Dy  Dy7       1.0  0.0  0.031179999999999992  0.75  1.0000
  Dy  Dy8       1.0  0.5  0.53118  0.75  1.0000
  P   P1        1.0  0.024999999999999915  0.15233  0.03255  1.0000
  P   P2        1.0  0.9750000000000001  0.15233  0.46745  1.0000
  P   P3        1.0  0.5249999999999999  0.6523299999999999  0.03255  1.0000
  P   P4        1.0  0.4750000000000001  0.6523299999999999  0.46745  1.0000
  P   P5        1.0  0.9750000000000001  0.84767  0.96745  1.0000
  P   P6        1.0  0.024999999999999915  0.84767  0.53255  1.0000
  P   P7        1.0  0.4750000000000001  0.34767000000000003  0.96745  1.0000
  P   P8        1.0  0.5249999999999999  0.34767000000000003  0.53255  1.0000
  P   P9        1.0  0.18168999999999993  0.13794999999999996  0.39145  1.0000
  P   P10       1.0  0.8183100000000001  0.13794999999999996  0.10854999999999998  1.0000
  P   P11       1.0  0.6816899999999999  0.63795  0.39145  1.0000
  P   P12       1.0  0.3183100000000001  0.63795  0.10854999999999998  1.0000
  P   P13       1.0  0.8183100000000001  0.86205  0.6085499999999999  1.0000
  P   P14       1.0  0.1816899999999999  0.86205  0.8914500000000001  1.0000
  P   P15       1.0  0.3183100000000001  0.36205000000000004  0.6085499999999999  1.0000
  P   P16       1.0  0.6816899999999999  0.36205000000000004  0.8914500000000001  1.0000
  P   P17       1.0  0.14714000000000005  0.46602  0.49866999999999995  1.0000
  P   P18       1.0  0.85286  0.46602  0.0013300000000000531  1.0000
  P   P19       1.0  0.64714  0.96602  0.49866999999999995  1.0000
  P   P20       1.0  0.35285999999999995  0.96602  0.0013300000000000531  1.0000
  P   P21       1.0  0.85286  0.53398  0.50133  1.0000
  P   P22       1.0  0.14714000000000005  0.53398  0.9986699999999998  1.0000
  P   P23       1.0  0.35285999999999995  0.03398000000000001  0.50133  1.0000
  P   P24       1.0  0.64714  0.03398000000000001  0.9986699999999998  1.0000
  P   P25       1.0  0.14895999999999998  0.33222999999999997  0.10313  1.0000
  P   P26       1.0  0.8510400000000001  0.33222999999999997  0.39686999999999995  1.0000
  P   P27       1.0  0.6489599999999999  0.8322299999999999  0.10313  1.0000
  P   P28       1.0  0.35104  0.8322299999999999  0.39686999999999995  1.0000
  P   P29       1.0  0.8510400000000001  0.66777  0.8968700000000001  1.0000
  P   P30       1.0  0.14895999999999998  0.66777  0.6031299999999999  1.0000
  P   P31       1.0  0.35104  0.16777000000000003  0.8968700000000001  1.0000
  P   P32       1.0  0.6489599999999999  0.16777000000000003  0.6031299999999999  1.0000
  P   P33       1.0  0.32071999999999995  0.25021  0.24096  1.0000
  P   P34       1.0  0.6792800000000001  0.25021  0.25904  1.0000
  P   P35       1.0  0.8207199999999999  0.75021  0.24096  1.0000
  P   P36       1.0  0.1792800000000001  0.75021  0.25904  1.0000
  P   P37       1.0  0.6792800000000001  0.74979  0.7590399999999999  1.0000
  P   P38       1.0  0.32071999999999995  0.74979  0.74096  1.0000
  P   P39       1.0  0.1792800000000001  0.24979  0.7590399999999999  1.0000
  P   P40       1.0  0.8207199999999999  0.24979  0.74096  1.0000
  O   O1        1.0  0.025700000000000053  0.1032  0.9263999999999999  1.0000
  O   O2        1.0  0.9742999999999999  0.1032  0.5736  1.0000
  O   O3        1.0  0.5257000000000001  0.6032  0.9263999999999999  1.0000
  O   O4        1.0  0.47429999999999994  0.6032  0.5736  1.0000
  O   O5        1.0  0.9742999999999999  0.8967999999999999  0.0736  1.0000
  O   O6        1.0  0.025700000000000056  0.8967999999999999  0.4264  1.0000
  O   O7        1.0  0.47429999999999994  0.39679999999999993  0.0736  1.0000
  O   O8        1.0  0.5257000000000001  0.39679999999999993  0.4264  1.0000
  O   O9        1.0  0.060699999999999976  0.0973  0.1306  1.0000
  O   O10       1.0  0.9393  0.0973  0.36939999999999995  1.0000
  O   O11       1.0  0.5607  0.5972999999999999  0.1306  1.0000
  O   O12       1.0  0.4393  0.5972999999999999  0.36939999999999995  1.0000
  O   O13       1.0  0.9393  0.9027  0.8693999999999998  1.0000
  O   O14       1.0  0.060699999999999976  0.9027  0.6306  1.0000
  O   O15       1.0  0.4393  0.4027  0.8693999999999998  1.0000
  O   O16       1.0  0.5607  0.4027  0.6306  1.0000
  O   O17       1.0  0.08650000000000002  0.2617  0.021  1.0000
  O   O18       1.0  0.9135  0.2617  0.479  1.0000
  O   O19       1.0  0.5865  0.7617  0.021  1.0000
  O   O20       1.0  0.4135  0.7617  0.479  1.0000
  O   O21       1.0  0.9135  0.7382999999999998  0.9789999999999999  1.0000
  O   O22       1.0  0.08650000000000002  0.7382999999999998  0.521  1.0000
  O   O23       1.0  0.4135  0.23829999999999998  0.9789999999999999  1.0000
  O   O24       1.0  0.5865  0.23829999999999998  0.521  1.0000
  O   O25       1.0  0.09139999999999993  0.19809999999999997  0.4457  1.0000
  O   O26       1.0  0.9086000000000001  0.19809999999999997  0.05430000000000001  1.0000
  O   O27       1.0  0.5913999999999999  0.6980999999999999  0.4457  1.0000
  O   O28       1.0  0.40860000000000013  0.6980999999999999  0.05430000000000001  1.0000
  O   O29       1.0  0.9086000000000001  0.8019  0.5543  1.0000
  O   O30       1.0  0.09139999999999993  0.8019  0.9457  1.0000
  O   O31       1.0  0.40860000000000013  0.30190000000000006  0.5543  1.0000
  O   O32       1.0  0.5913999999999998  0.30190000000000006  0.9457  1.0000
  O   O33       1.0  0.15260000000000007  0.0497  0.3226  1.0000
  O   O34       1.0  0.8473999999999999  0.0497  0.1774  1.0000
  O   O35       1.0  0.6526000000000001  0.5496999999999999  0.3226  1.0000
  O   O36       1.0  0.34739999999999993  0.5496999999999999  0.1774  1.0000
  O   O37       1.0  0.8473999999999999  0.9502999999999999  0.6773999999999999  1.0000
  O   O38       1.0  0.15260000000000007  0.9502999999999999  0.8226  1.0000
  O   O39       1.0  0.34739999999999993  0.4503  0.6773999999999999  1.0000
  O   O40       1.0  0.6526000000000001  0.4503  0.8226  1.0000
  O   O41       1.0  0.2398  0.2283  0.3355  1.0000
  O   O42       1.0  0.7602  0.2283  0.16449999999999995  1.0000
  O   O43       1.0  0.7398  0.7283  0.3355  1.0000
  O   O44       1.0  0.2602  0.7283  0.16449999999999995  1.0000
  O   O45       1.0  0.7602  0.7717  0.6645  1.0000
  O   O46       1.0  0.2398  0.7717  0.8354999999999999  1.0000
  O   O47       1.0  0.2602  0.27169999999999994  0.6645  1.0000
  O   O48       1.0  0.7398  0.27169999999999994  0.8354999999999999  1.0000
  O   O49       1.0  0.2490000000000001  0.1041  0.49139999999999995  1.0000
  O   O50       1.0  0.751  0.1041  0.008600000000000052  1.0000
  O   O51       1.0  0.749  0.6041  0.49139999999999995  1.0000
  O   O52       1.0  0.2509999999999999  0.6041  0.008600000000000052  1.0000
  O   O53       1.0  0.751  0.8959  0.5086  1.0000
  O   O54       1.0  0.2490000000000001  0.8959  0.9914  1.0000
  O   O55       1.0  0.2509999999999999  0.3959  0.5086  1.0000
  O   O56       1.0  0.749  0.3959  0.9914  1.0000
  O   O57       1.0  0.11589999999999989  0.4635999999999999  0.38569999999999993  1.0000
  O   O58       1.0  0.8841000000000001  0.4635999999999999  0.11430000000000007  1.0000
  O   O59       1.0  0.6158999999999999  0.9635999999999999  0.38569999999999993  1.0000
  O   O60       1.0  0.3841000000000001  0.9635999999999999  0.11430000000000007  1.0000
  O   O61       1.0  0.8841000000000001  0.5364  0.6143000000000001  1.0000
  O   O62       1.0  0.11589999999999989  0.5364  0.8856999999999999  1.0000
  O   O63       1.0  0.3841000000000001  0.03640000000000004  0.6143000000000001  1.0000
  O   O64       1.0  0.6158999999999999  0.03640000000000004  0.8856999999999999  1.0000
  O   O65       1.0  0.07679999999999998  0.4342  0.5843  1.0000
  O   O66       1.0  0.9232  0.4342  0.9156999999999998  1.0000
  O   O67       1.0  0.5768  0.9341999999999999  0.5843  1.0000
  O   O68       1.0  0.4232  0.9341999999999999  0.9156999999999998  1.0000
  O   O69       1.0  0.9232  0.5658000000000001  0.41569999999999996  1.0000
  O   O70       1.0  0.07679999999999998  0.5658000000000001  0.08430000000000004  1.0000
  O   O71       1.0  0.4232  0.06580000000000003  0.41569999999999996  1.0000
  O   O72       1.0  0.5768  0.06580000000000003  0.08430000000000004  1.0000
  O   O73       1.0  0.1946000000000001  0.41819999999999996  0.0282  1.0000
  O   O74       1.0  0.8053999999999999  0.41819999999999996  0.4718  1.0000
  O   O75       1.0  0.6946000000000001  0.9181999999999998  0.0282  1.0000
  O   O76       1.0  0.3053999999999999  0.9181999999999998  0.4718  1.0000
  O   O77       1.0  0.8053999999999999  0.5818000000000001  0.9718  1.0000
  O   O78       1.0  0.1946000000000001  0.5818000000000001  0.5282  1.0000
  O   O79       1.0  0.3053999999999999  0.08180000000000003  0.9718  1.0000
  O   O80       1.0  0.6946000000000001  0.08180000000000003  0.5282  1.0000
  O   O81       1.0  0.08959999999999989  0.3714  0.19209999999999997  1.0000
  O   O82       1.0  0.9104000000000001  0.3714  0.30790000000000006  1.0000
  O   O83       1.0  0.5895999999999999  0.8714  0.19209999999999997  1.0000
  O   O84       1.0  0.4104000000000001  0.8714  0.30790000000000006  1.0000
  O   O85       1.0  0.9104000000000001  0.6286  0.8079  1.0000
  O   O86       1.0  0.08959999999999989  0.6286  0.6920999999999999  1.0000
  O   O87       1.0  0.4104000000000001  0.1286  0.8079  1.0000
  O   O88       1.0  0.5895999999999999  0.1286  0.6920999999999999  1.0000
  O   O89       1.0  0.24370000000000003  0.2633  0.1365  1.0000
  O   O90       1.0  0.7563000000000001  0.2633  0.36349999999999993  1.0000
  O   O91       1.0  0.7436999999999999  0.7632999999999999  0.1365  1.0000
  O   O92       1.0  0.2563  0.7632999999999999  0.36349999999999993  1.0000
  O   O93       1.0  0.7563000000000001  0.7367  0.8634999999999998  1.0000
  O   O94       1.0  0.24370000000000003  0.7367  0.6365000000000001  1.0000
  O   O95       1.0  0.2563  0.2367  0.8634999999999998  1.0000
  O   O96       1.0  0.7436999999999999  0.2367  0.6365000000000001  1.0000
  O   O97       1.0  0.3680000000000001  0.35089999999999993  0.2684  1.0000
  O   O98       1.0  0.6319999999999999  0.35089999999999993  0.23159999999999997  1.0000
  O   O99       1.0  0.8680000000000001  0.8508999999999999  0.2684  1.0000
  O   O100      1.0  0.1319999999999999  0.8508999999999999  0.23159999999999997  1.0000
  O   O101      1.0  0.6319999999999999  0.6491  0.7316  1.0000
  O   O102      1.0  0.3680000000000001  0.6491  0.7683999999999999  1.0000
  O   O103      1.0  0.1319999999999999  0.14910000000000007  0.7316  1.0000
  O   O104      1.0  0.8680000000000001  0.14910000000000007  0.7683999999999999  1.0000
  O   O105      1.0  0.38330000000000003  0.1578  0.21829999999999997  1.0000
  O   O106      1.0  0.6167  0.1578  0.28170000000000006  1.0000
  O   O107      1.0  0.8833  0.6577999999999998  0.21829999999999997  1.0000
  O   O108      1.0  0.11670000000000003  0.6577999999999998  0.28170000000000006  1.0000
  O   O109      1.0  0.6167  0.8422000000000001  0.7817000000000001  1.0000
  O   O110      1.0  0.3832999999999999  0.8422000000000001  0.7182999999999999  1.0000
  O   O111      1.0  0.11670000000000003  0.3422  0.7817000000000001  1.0000
  O   O112      1.0  0.8833  0.3422  0.7182999999999999  1.0000
