data_image0
_chemical_formula_structural       Bi26O40
_chemical_formula_sum              "Bi26 O40"
_cell_length_a       10.265
_cell_length_b       10.265
_cell_length_c       10.265
_cell_angle_alpha    90.0
_cell_angle_beta     90.0
_cell_angle_gamma    90.0

_space_group_name_H-M_alt    "P 1"
_space_group_IT_number       1

loop_
  _space_group_symop_operation_xyz
  'x, y, z'

loop_
  _atom_site_type_symbol
  _atom_site_label
  _atom_site_symmetry_multiplicity
  _atom_site_fract_x
  _atom_site_fract_y
  _atom_site_fract_z
  _atom_site_occupancy
  Bi  Bi1       1.0  0.0  0.0  0.0  0.6750
  Bi  Bi2       1.0  0.5  0.5  0.5  0.6750
  Bi  Bi3       1.0  0.17660000000000003  0.3205  0.0096  1.0000
  Bi  Bi4       1.0  0.3205  0.0096  0.17660000000000003  1.0000
  Bi  Bi5       1.0  0.0096  0.17660000000000003  0.3205  1.0000
  Bi  Bi6       1.0  0.17660000000000003  0.6795000000000001  0.9904  1.0000
  Bi  Bi7       1.0  0.3205  0.9904  0.8233999999999999  1.0000
  Bi  Bi8       1.0  0.0096  0.8233999999999999  0.6795000000000001  1.0000
  Bi  Bi9       1.0  0.8233999999999999  0.3205  0.9904  1.0000
  Bi  Bi10      1.0  0.6795000000000001  0.0096  0.8233999999999999  1.0000
  Bi  Bi11      1.0  0.9904  0.17660000000000003  0.6795000000000001  1.0000
  Bi  Bi12      1.0  0.8233999999999999  0.6795000000000001  0.0096  1.0000
  Bi  Bi13      1.0  0.6795000000000001  0.9904  0.17660000000000003  1.0000
  Bi  Bi14      1.0  0.9904  0.8233999999999999  0.3205  1.0000
  Bi  Bi15      1.0  0.6766000000000001  0.8205000000000001  0.5096  1.0000
  Bi  Bi16      1.0  0.8205000000000001  0.5096  0.6766000000000001  1.0000
  Bi  Bi17      1.0  0.5096  0.6766000000000001  0.8205000000000001  1.0000
  Bi  Bi18      1.0  0.6766000000000001  0.17950000000000002  0.4904  1.0000
  Bi  Bi19      1.0  0.8205000000000001  0.4904  0.32339999999999997  1.0000
  Bi  Bi20      1.0  0.5096  0.32339999999999997  0.17950000000000002  1.0000
  Bi  Bi21      1.0  0.32339999999999997  0.8205000000000001  0.4904  1.0000
  Bi  Bi22      1.0  0.17950000000000002  0.5096  0.32339999999999997  1.0000
  Bi  Bi23      1.0  0.4904  0.6766000000000001  0.17950000000000002  1.0000
  Bi  Bi24      1.0  0.32339999999999997  0.17950000000000002  0.5096  1.0000
  Bi  Bi25      1.0  0.17950000000000002  0.4904  0.6766000000000001  1.0000
  Bi  Bi26      1.0  0.4904  0.32339999999999997  0.8205000000000001  1.0000
  O   O1        1.0  0.1347  0.2502  0.47970000000000007  1.0000
  O   O2        1.0  0.2502  0.47970000000000007  0.1347  1.0000
  O   O3        1.0  0.47970000000000007  0.1347  0.2502  1.0000
  O   O4        1.0  0.1347  0.7498  0.5203  1.0000
  O   O5        1.0  0.2502  0.5203  0.8653  1.0000
  O   O6        1.0  0.47970000000000007  0.8653  0.7498  1.0000
  O   O7        1.0  0.8653  0.2502  0.5203  1.0000
  O   O8        1.0  0.7498  0.47970000000000007  0.8653  1.0000
  O   O9        1.0  0.5203  0.1347  0.7498  1.0000
  O   O10       1.0  0.8653  0.7498  0.47970000000000007  1.0000
  O   O11       1.0  0.7498  0.5203  0.1347  1.0000
  O   O12       1.0  0.5203  0.8653  0.2502  1.0000
  O   O13       1.0  0.6347  0.7502000000000001  0.9797000000000001  1.0000
  O   O14       1.0  0.7502000000000001  0.9797000000000001  0.6347  1.0000
  O   O15       1.0  0.9797000000000001  0.6347  0.7502000000000001  1.0000
  O   O16       1.0  0.6347  0.24980000000000005  0.02029999999999993  1.0000
  O   O17       1.0  0.7502000000000001  0.02029999999999993  0.3653  1.0000
  O   O18       1.0  0.9797000000000001  0.3653  0.24980000000000005  1.0000
  O   O19       1.0  0.3653  0.7502000000000001  0.02029999999999993  1.0000
  O   O20       1.0  0.24980000000000005  0.9797000000000001  0.3653  1.0000
  O   O21       1.0  0.02029999999999993  0.6347  0.24980000000000005  1.0000
  O   O22       1.0  0.3653  0.24980000000000005  0.9797000000000001  1.0000
  O   O23       1.0  0.24980000000000005  0.02029999999999993  0.6347  1.0000
  O   O24       1.0  0.02029999999999993  0.3653  0.7502000000000001  1.0000
  O   O25       1.0  0.1888  0.1888  0.1888  1.0000
  O   O26       1.0  0.1888  0.8112  0.8112  1.0000
  O   O27       1.0  0.8112  0.1888  0.8112  1.0000
  O   O28       1.0  0.8112  0.8112  0.1888  1.0000
  O   O29       1.0  0.6888  0.6888  0.6888  1.0000
  O   O30       1.0  0.6888  0.31120000000000003  0.31120000000000003  1.0000
  O   O31       1.0  0.31120000000000003  0.6888  0.31120000000000003  1.0000
  O   O32       1.0  0.31120000000000003  0.31120000000000003  0.6888  1.0000
  O   O33       1.0  0.8876000000000001  0.8876000000000001  0.8876000000000001  1.0000
  O   O34       1.0  0.8876000000000001  0.11239999999999996  0.11239999999999996  1.0000
  O   O35       1.0  0.11239999999999996  0.8876000000000001  0.11239999999999996  1.0000
  O   O36       1.0  0.11239999999999996  0.11239999999999996  0.8876000000000001  1.0000
  O   O37       1.0  0.38759999999999994  0.38759999999999994  0.38759999999999994  1.0000
  O   O38       1.0  0.38759999999999994  0.6123999999999999  0.6123999999999999  1.0000
  O   O39       1.0  0.6123999999999999  0.38759999999999994  0.6123999999999999  1.0000
  O   O40       1.0  0.6123999999999999  0.6123999999999999  0.38759999999999994  1.0000
  V   V1        1.0  0.0  0.0  0.0  0.0450
  V   V2        1.0  0.5  0.5  0.5  0.0450
