data_image0
_chemical_formula_structural       Hg4Ge2Se8
_chemical_formula_sum              "Hg4 Ge2 Se8"
_cell_length_a       5.6741
_cell_length_b       5.6741
_cell_length_c       11.249
_cell_angle_alpha    90.0
_cell_angle_beta     90.0
_cell_angle_gamma    90.0

_space_group_name_H-M_alt    "P 1"
_space_group_IT_number       1

loop_
  _space_group_symop_operation_xyz
  'x, y, z'

loop_
  _atom_site_type_symbol
  _atom_site_label
  _atom_site_symmetry_multiplicity
  _atom_site_fract_x
  _atom_site_fract_y
  _atom_site_fract_z
  _atom_site_occupancy
  Hg  Hg1       1.0  0.0  0.5  0.25  1.0000
  Hg  Hg2       1.0  0.5  0.0  0.75  1.0000
  Hg  Hg3       1.0  0.0  0.0  0.5  1.0000
  Hg  Hg4       1.0  0.5  0.5  0.0  1.0000
  Ge  Ge1       1.0  0.0  0.5  0.75  1.0000
  Ge  Ge2       1.0  0.5  0.0  0.25  1.0000
  Se  Se1       1.0  0.8067999999999997  0.2374  0.8823  1.0000
  Se  Se2       1.0  0.19320000000000012  0.7626  0.8823  1.0000
  Se  Se3       1.0  0.2374  0.19320000000000012  0.11770000000000003  1.0000
  Se  Se4       1.0  0.7626  0.8067999999999997  0.11770000000000003  1.0000
  Se  Se5       1.0  0.30679999999999996  0.7374  0.38229999999999986  1.0000
  Se  Se6       1.0  0.6932000000000001  0.2626  0.38229999999999986  1.0000
  Se  Se7       1.0  0.7374  0.6932000000000001  0.6177  1.0000
  Se  Se8       1.0  0.2626  0.30679999999999996  0.6177  1.0000
