data_image0
_chemical_formula_structural       Pr16Zr16O56
_chemical_formula_sum              "Pr16 Zr16 O56"
_cell_length_a       10.70988
_cell_length_b       10.70988
_cell_length_c       10.70988
_cell_angle_alpha    90.0
_cell_angle_beta     90.0
_cell_angle_gamma    90.0

_space_group_name_H-M_alt    "P 1"
_space_group_IT_number       1

loop_
  _space_group_symop_operation_xyz
  'x, y, z'

loop_
  _atom_site_type_symbol
  _atom_site_label
  _atom_site_symmetry_multiplicity
  _atom_site_fract_x
  _atom_site_fract_y
  _atom_site_fract_z
  _atom_site_occupancy
  Pr  Pr1       1.0  0.5  0.5  0.5  1.0000
  Pr  Pr2       1.0  0.75  0.75  0.5  1.0000
  Pr  Pr3       1.0  0.5  0.75  0.75  1.0000
  Pr  Pr4       1.0  0.75  0.5  0.75  1.0000
  Pr  Pr5       1.0  0.75  0.0  0.25  1.0000
  Pr  Pr6       1.0  0.25  0.75  0.0  1.0000
  Pr  Pr7       1.0  0.0  0.75  0.25  1.0000
  Pr  Pr8       1.0  0.25  0.0  0.75  1.0000
  Pr  Pr9       1.0  0.75  0.25  0.0  1.0000
  Pr  Pr10      1.0  0.0  0.25  0.75  1.0000
  Pr  Pr11      1.0  0.25  0.25  0.5  1.0000
  Pr  Pr12      1.0  0.5  0.25  0.25  1.0000
  Pr  Pr13      1.0  0.25  0.5  0.25  1.0000
  Pr  Pr14      1.0  0.5  0.0  0.0  1.0000
  Pr  Pr15      1.0  0.0  0.5  0.0  1.0000
  Pr  Pr16      1.0  0.0  0.0  0.5  1.0000
  Zr  Zr1       1.0  0.0  0.0  0.0  1.0000
  Zr  Zr2       1.0  0.25  0.25  0.0  1.0000
  Zr  Zr3       1.0  0.0  0.25  0.25  1.0000
  Zr  Zr4       1.0  0.25  0.0  0.25  1.0000
  Zr  Zr5       1.0  0.25  0.5  0.75  1.0000
  Zr  Zr6       1.0  0.75  0.25  0.5  1.0000
  Zr  Zr7       1.0  0.5  0.25  0.75  1.0000
  Zr  Zr8       1.0  0.75  0.5  0.25  1.0000
  Zr  Zr9       1.0  0.25  0.75  0.5  1.0000
  Zr  Zr10      1.0  0.5  0.75  0.25  1.0000
  Zr  Zr11      1.0  0.75  0.75  0.0  1.0000
  Zr  Zr12      1.0  0.0  0.75  0.75  1.0000
  Zr  Zr13      1.0  0.75  0.0  0.75  1.0000
  Zr  Zr14      1.0  0.0  0.5  0.5  1.0000
  Zr  Zr15      1.0  0.5  0.0  0.5  1.0000
  Zr  Zr16      1.0  0.5  0.5  0.0  1.0000
  O   O1        1.0  0.625  0.625  0.625  1.0000
  O   O2        1.0  0.875  0.875  0.375  1.0000
  O   O3        1.0  0.375  0.875  0.875  1.0000
  O   O4        1.0  0.875  0.375  0.875  1.0000
  O   O5        1.0  0.625  0.125  0.125  1.0000
  O   O6        1.0  0.125  0.625  0.125  1.0000
  O   O7        1.0  0.125  0.125  0.625  1.0000
  O   O8        1.0  0.375  0.375  0.375  1.0000
  O   O9        1.0  0.4210999999999999  0.125  0.125  1.0000
  O   O10       1.0  0.125  0.4210999999999999  0.125  1.0000
  O   O11       1.0  0.125  0.125  0.4210999999999999  1.0000
  O   O12       1.0  0.6710999999999999  0.375  0.875  1.0000
  O   O13       1.0  0.875  0.6710999999999999  0.375  1.0000
  O   O14       1.0  0.375  0.875  0.6710999999999999  1.0000
  O   O15       1.0  0.125  0.9210999999999999  0.625  1.0000
  O   O16       1.0  0.625  0.125  0.9210999999999999  1.0000
  O   O17       1.0  0.625  0.125  0.3289000000000001  1.0000
  O   O18       1.0  0.3289000000000001  0.625  0.125  1.0000
  O   O19       1.0  0.125  0.3289000000000001  0.625  1.0000
  O   O20       1.0  0.9210999999999999  0.625  0.125  1.0000
  O   O21       1.0  0.375  0.6710999999999999  0.875  1.0000
  O   O22       1.0  0.875  0.375  0.6710999999999999  1.0000
  O   O23       1.0  0.6710999999999999  0.875  0.375  1.0000
  O   O24       1.0  0.125  0.625  0.3289000000000001  1.0000
  O   O25       1.0  0.3289000000000001  0.125  0.625  1.0000
  O   O26       1.0  0.9210999999999999  0.125  0.625  1.0000
  O   O27       1.0  0.625  0.9210999999999999  0.125  1.0000
  O   O28       1.0  0.125  0.625  0.9210999999999999  1.0000
  O   O29       1.0  0.625  0.3289000000000001  0.125  1.0000
  O   O30       1.0  0.5789000000000001  0.875  0.875  1.0000
  O   O31       1.0  0.875  0.5789000000000001  0.875  1.0000
  O   O32       1.0  0.875  0.875  0.5789000000000001  1.0000
  O   O33       1.0  0.875  0.07890000000000008  0.375  1.0000
  O   O34       1.0  0.375  0.875  0.07890000000000008  1.0000
  O   O35       1.0  0.07890000000000008  0.375  0.875  1.0000
  O   O36       1.0  0.07890000000000008  0.875  0.375  1.0000
  O   O37       1.0  0.375  0.07890000000000008  0.875  1.0000
  O   O38       1.0  0.875  0.375  0.07890000000000008  1.0000
  O   O39       1.0  0.4210999999999999  0.625  0.625  1.0000
  O   O40       1.0  0.875  0.17110000000000003  0.875  1.0000
  O   O41       1.0  0.375  0.375  0.17110000000000003  1.0000
  O   O42       1.0  0.625  0.625  0.4210999999999999  1.0000
  O   O43       1.0  0.625  0.625  0.8289000000000001  1.0000
  O   O44       1.0  0.125  0.8289000000000001  0.125  1.0000
  O   O45       1.0  0.375  0.17110000000000003  0.375  1.0000
  O   O46       1.0  0.875  0.875  0.17110000000000003  1.0000
  O   O47       1.0  0.125  0.125  0.8289000000000001  1.0000
  O   O48       1.0  0.625  0.4210999999999999  0.625  1.0000
  O   O49       1.0  0.625  0.8289000000000001  0.625  1.0000
  O   O50       1.0  0.5789000000000001  0.375  0.375  1.0000
  O   O51       1.0  0.375  0.375  0.5789000000000001  1.0000
  O   O52       1.0  0.375  0.5789000000000001  0.375  1.0000
  O   O53       1.0  0.17110000000000003  0.375  0.375  1.0000
  O   O54       1.0  0.8289000000000001  0.625  0.625  1.0000
  O   O55       1.0  0.17110000000000003  0.875  0.875  1.0000
  O   O56       1.0  0.8289000000000001  0.125  0.125  1.0000
