data_image0
_chemical_formula_structural       Ba8As8Zn4
_chemical_formula_sum              "Ba8 As8 Zn4"
_cell_length_a       13.399
_cell_length_b       6.878
_cell_length_c       6.541
_cell_angle_alpha    90.0
_cell_angle_beta     90.0
_cell_angle_gamma    90.0

_space_group_name_H-M_alt    "P 1"
_space_group_IT_number       1

loop_
  _space_group_symop_operation_xyz
  'x, y, z'

loop_
  _atom_site_type_symbol
  _atom_site_label
  _atom_site_symmetry_multiplicity
  _atom_site_fract_x
  _atom_site_fract_y
  _atom_site_fract_z
  _atom_site_occupancy
  Ba  Ba1       1.0  0.36058  0.30525  0.0  1.0000
  Ba  Ba2       1.0  0.6394199999999999  0.69475  0.0  1.0000
  Ba  Ba3       1.0  0.13942  0.8052499999999999  0.0  1.0000
  Ba  Ba4       1.0  0.8605799999999999  0.19474999999999998  0.0  1.0000
  Ba  Ba5       1.0  0.8605799999999999  0.8052499999999999  0.5  1.0000
  Ba  Ba6       1.0  0.13942  0.19474999999999998  0.5  1.0000
  Ba  Ba7       1.0  0.6394199999999999  0.30525  0.5  1.0000
  Ba  Ba8       1.0  0.36058  0.69475  0.5  1.0000
  As  As1       1.0  0.10827  0.2973999999999999  0.0  1.0000
  As  As2       1.0  0.8917299999999999  0.7026000000000001  0.0  1.0000
  As  As3       1.0  0.39172999999999997  0.7973999999999998  0.0  1.0000
  As  As4       1.0  0.6082699999999999  0.20260000000000003  0.0  1.0000
  As  As5       1.0  0.6082699999999999  0.7973999999999998  0.5  1.0000
  As  As6       1.0  0.39172999999999997  0.20260000000000003  0.5  1.0000
  As  As7       1.0  0.8917299999999999  0.2973999999999999  0.5  1.0000
  As  As8       1.0  0.10827  0.7026000000000001  0.5  1.0000
  Zn  Zn1       1.0  0.4999999999999999  0.0  0.25  1.0000
  Zn  Zn2       1.0  5.551115123125782e-17  0.49999999999999994  0.75  1.0000
  Zn  Zn3       1.0  0.49999999999999994  0.0  0.75  1.0000
  Zn  Zn4       1.0  0.0  0.49999999999999994  0.25  1.0000
