data_image0
_chemical_formula_structural       Co16Na48O96C32Cl16
_chemical_formula_sum              "Co16 Na48 O96 C32 Cl16"
_cell_length_a       13.9959
_cell_length_b       13.9959
_cell_length_c       13.9959
_cell_angle_alpha    90.0
_cell_angle_beta     90.0
_cell_angle_gamma    90.0

_space_group_name_H-M_alt    "P 1"
_space_group_IT_number       1

loop_
  _space_group_symop_operation_xyz
  'x, y, z'

loop_
  _atom_site_type_symbol
  _atom_site_label
  _atom_site_symmetry_multiplicity
  _atom_site_fract_x
  _atom_site_fract_y
  _atom_site_fract_z
  _atom_site_occupancy
  Co  Co1       1.0  0.0  0.5  0.5  1.0000
  Co  Co2       1.0  0.25  0.75  0.5  1.0000
  Co  Co3       1.0  0.25  0.5  0.75  1.0000
  Co  Co4       1.0  0.0  0.75  0.75  1.0000
  Co  Co5       1.0  0.5  0.0  0.5  1.0000
  Co  Co6       1.0  0.5  0.25  0.75  1.0000
  Co  Co7       1.0  0.75  0.25  0.5  1.0000
  Co  Co8       1.0  0.75  0.0  0.75  1.0000
  Co  Co9       1.0  0.5  0.5  0.0  1.0000
  Co  Co10      1.0  0.75  0.5  0.25  1.0000
  Co  Co11      1.0  0.5  0.75  0.25  1.0000
  Co  Co12      1.0  0.75  0.75  0.0  1.0000
  Co  Co13      1.0  0.0  0.0  0.0  1.0000
  Co  Co14      1.0  0.25  0.25  0.0  1.0000
  Co  Co15      1.0  0.25  0.0  0.25  1.0000
  Co  Co16      1.0  0.0  0.25  0.25  1.0000
  Na  Na1       1.0  0.125  0.34929  0.625  1.0000
  Na  Na2       1.0  0.125  0.90071  0.625  1.0000
  Na  Na3       1.0  0.625  0.125  0.34929  1.0000
  Na  Na4       1.0  0.625  0.125  0.90071  1.0000
  Na  Na5       1.0  0.34929  0.625  0.125  1.0000
  Na  Na6       1.0  0.90071  0.625  0.125  1.0000
  Na  Na7       1.0  0.125  0.84929  0.125  1.0000
  Na  Na8       1.0  0.125  0.40071  0.125  1.0000
  Na  Na9       1.0  0.625  0.625  0.84929  1.0000
  Na  Na10      1.0  0.625  0.625  0.40071  1.0000
  Na  Na11      1.0  0.34929  0.125  0.625  1.0000
  Na  Na12      1.0  0.90071  0.125  0.625  1.0000
  Na  Na13      1.0  0.625  0.34929  0.125  1.0000
  Na  Na14      1.0  0.625  0.90071  0.125  1.0000
  Na  Na15      1.0  0.125  0.125  0.84929  1.0000
  Na  Na16      1.0  0.125  0.125  0.40071  1.0000
  Na  Na17      1.0  0.84929  0.625  0.625  1.0000
  Na  Na18      1.0  0.40071  0.625  0.625  1.0000
  Na  Na19      1.0  0.625  0.84929  0.625  1.0000
  Na  Na20      1.0  0.625  0.40071  0.625  1.0000
  Na  Na21      1.0  0.125  0.625  0.34929  1.0000
  Na  Na22      1.0  0.125  0.625  0.90071  1.0000
  Na  Na23      1.0  0.84929  0.125  0.125  1.0000
  Na  Na24      1.0  0.40071  0.125  0.125  1.0000
  Na  Na25      1.0  0.875  0.65071  0.375  1.0000
  Na  Na26      1.0  0.875  0.09928999999999989  0.375  1.0000
  Na  Na27      1.0  0.375  0.875  0.65071  1.0000
  Na  Na28      1.0  0.375  0.875  0.09928999999999989  1.0000
  Na  Na29      1.0  0.65071  0.375  0.875  1.0000
  Na  Na30      1.0  0.09928999999999989  0.375  0.875  1.0000
  Na  Na31      1.0  0.875  0.15071  0.875  1.0000
  Na  Na32      1.0  0.875  0.59929  0.875  1.0000
  Na  Na33      1.0  0.375  0.375  0.15071  1.0000
  Na  Na34      1.0  0.375  0.375  0.59929  1.0000
  Na  Na35      1.0  0.65071  0.875  0.375  1.0000
  Na  Na36      1.0  0.09928999999999989  0.875  0.375  1.0000
  Na  Na37      1.0  0.375  0.65071  0.875  1.0000
  Na  Na38      1.0  0.375  0.09928999999999989  0.875  1.0000
  Na  Na39      1.0  0.875  0.875  0.15071  1.0000
  Na  Na40      1.0  0.875  0.875  0.59929  1.0000
  Na  Na41      1.0  0.15071  0.375  0.375  1.0000
  Na  Na42      1.0  0.59929  0.375  0.375  1.0000
  Na  Na43      1.0  0.375  0.15071  0.375  1.0000
  Na  Na44      1.0  0.375  0.59929  0.375  1.0000
  Na  Na45      1.0  0.875  0.375  0.65071  1.0000
  Na  Na46      1.0  0.875  0.375  0.09928999999999989  1.0000
  Na  Na47      1.0  0.15071  0.875  0.875  1.0000
  Na  Na48      1.0  0.59929  0.875  0.875  1.0000
  O   O1        1.0  0.97581  0.6468  0.51647  1.0000
  O   O2        1.0  0.27419  0.6032  0.51647  1.0000
  O   O3        1.0  0.27419  0.6468  0.73353  1.0000
  O   O4        1.0  0.97581  0.6032  0.73353  1.0000
  O   O5        1.0  0.51647  0.97581  0.6468  1.0000
  O   O6        1.0  0.51647  0.27419  0.6032  1.0000
  O   O7        1.0  0.73353  0.27419  0.6468  1.0000
  O   O8        1.0  0.73353  0.97581  0.6032  1.0000
  O   O9        1.0  0.6468  0.51647  0.97581  1.0000
  O   O10       1.0  0.6032  0.51647  0.27419  1.0000
  O   O11       1.0  0.6468  0.73353  0.27419  1.0000
  O   O12       1.0  0.6032  0.73353  0.97581  1.0000
  O   O13       1.0  0.97581  0.14680000000000004  0.016469999999999985  1.0000
  O   O14       1.0  0.27419  0.10319999999999996  0.016469999999999985  1.0000
  O   O15       1.0  0.27419  0.14680000000000004  0.23353000000000004  1.0000
  O   O16       1.0  0.97581  0.10319999999999996  0.23353000000000004  1.0000
  O   O17       1.0  0.51647  0.47581  0.14680000000000004  1.0000
  O   O18       1.0  0.51647  0.77419  0.10319999999999996  1.0000
  O   O19       1.0  0.73353  0.77419  0.14680000000000004  1.0000
  O   O20       1.0  0.73353  0.47581  0.10319999999999996  1.0000
  O   O21       1.0  0.6468  0.016469999999999985  0.47581  1.0000
  O   O22       1.0  0.6032  0.016469999999999985  0.77419  1.0000
  O   O23       1.0  0.6468  0.23353000000000004  0.77419  1.0000
  O   O24       1.0  0.6032  0.23353000000000004  0.47581  1.0000
  O   O25       1.0  0.47581  0.6468  0.016469999999999985  1.0000
  O   O26       1.0  0.77419  0.6032  0.016469999999999985  1.0000
  O   O27       1.0  0.77419  0.6468  0.23353000000000004  1.0000
  O   O28       1.0  0.47581  0.6032  0.23353000000000004  1.0000
  O   O29       1.0  0.016469999999999985  0.97581  0.14680000000000004  1.0000
  O   O30       1.0  0.016469999999999985  0.27419  0.10319999999999996  1.0000
  O   O31       1.0  0.23353000000000004  0.27419  0.14680000000000004  1.0000
  O   O32       1.0  0.23353000000000004  0.97581  0.10319999999999996  1.0000
  O   O33       1.0  0.14680000000000004  0.51647  0.47581  1.0000
  O   O34       1.0  0.10319999999999996  0.51647  0.77419  1.0000
  O   O35       1.0  0.14680000000000004  0.73353  0.77419  1.0000
  O   O36       1.0  0.10319999999999996  0.73353  0.47581  1.0000
  O   O37       1.0  0.47581  0.14680000000000004  0.51647  1.0000
  O   O38       1.0  0.77419  0.10319999999999996  0.51647  1.0000
  O   O39       1.0  0.77419  0.14680000000000004  0.73353  1.0000
  O   O40       1.0  0.47581  0.10319999999999996  0.73353  1.0000
  O   O41       1.0  0.016469999999999985  0.47581  0.6468  1.0000
  O   O42       1.0  0.016469999999999985  0.77419  0.6032  1.0000
  O   O43       1.0  0.23353000000000004  0.77419  0.6468  1.0000
  O   O44       1.0  0.23353000000000004  0.47581  0.6032  1.0000
  O   O45       1.0  0.14680000000000004  0.016469999999999985  0.97581  1.0000
  O   O46       1.0  0.10319999999999996  0.016469999999999985  0.27419  1.0000
  O   O47       1.0  0.14680000000000004  0.23353000000000004  0.27419  1.0000
  O   O48       1.0  0.10319999999999996  0.23353000000000004  0.97581  1.0000
  O   O49       1.0  0.02419  0.35319999999999996  0.48353  1.0000
  O   O50       1.0  0.72581  0.3968000000000001  0.48353  1.0000
  O   O51       1.0  0.72581  0.35319999999999996  0.26647  1.0000
  O   O52       1.0  0.02419  0.3968000000000001  0.26647  1.0000
  O   O53       1.0  0.48353  0.02419  0.35319999999999996  1.0000
  O   O54       1.0  0.48353  0.72581  0.3968000000000001  1.0000
  O   O55       1.0  0.26647  0.72581  0.35319999999999996  1.0000
  O   O56       1.0  0.26647  0.02419  0.3968000000000001  1.0000
  O   O57       1.0  0.35319999999999996  0.48353  0.02419  1.0000
  O   O58       1.0  0.3968000000000001  0.48353  0.72581  1.0000
  O   O59       1.0  0.35319999999999996  0.26647  0.72581  1.0000
  O   O60       1.0  0.3968000000000001  0.26647  0.02419  1.0000
  O   O61       1.0  0.02419  0.8532  0.9835300000000001  1.0000
  O   O62       1.0  0.72581  0.8968  0.9835300000000001  1.0000
  O   O63       1.0  0.72581  0.8532  0.76647  1.0000
  O   O64       1.0  0.02419  0.8968  0.76647  1.0000
  O   O65       1.0  0.48353  0.52419  0.8532  1.0000
  O   O66       1.0  0.48353  0.22581  0.8968  1.0000
  O   O67       1.0  0.26647  0.22581  0.8532  1.0000
  O   O68       1.0  0.26647  0.52419  0.8968  1.0000
  O   O69       1.0  0.35319999999999996  0.9835300000000001  0.52419  1.0000
  O   O70       1.0  0.3968000000000001  0.9835300000000001  0.22581  1.0000
  O   O71       1.0  0.35319999999999996  0.76647  0.22581  1.0000
  O   O72       1.0  0.3968000000000001  0.76647  0.52419  1.0000
  O   O73       1.0  0.52419  0.35319999999999996  0.9835300000000001  1.0000
  O   O74       1.0  0.22581  0.3968000000000001  0.9835300000000001  1.0000
  O   O75       1.0  0.22581  0.35319999999999996  0.76647  1.0000
  O   O76       1.0  0.52419  0.3968000000000001  0.76647  1.0000
  O   O77       1.0  0.9835300000000001  0.02419  0.8532  1.0000
  O   O78       1.0  0.9835300000000001  0.72581  0.8968  1.0000
  O   O79       1.0  0.76647  0.72581  0.8532  1.0000
  O   O80       1.0  0.76647  0.02419  0.8968  1.0000
  O   O81       1.0  0.8532  0.48353  0.52419  1.0000
  O   O82       1.0  0.8968  0.48353  0.22581  1.0000
  O   O83       1.0  0.8532  0.26647  0.22581  1.0000
  O   O84       1.0  0.8968  0.26647  0.52419  1.0000
  O   O85       1.0  0.52419  0.8532  0.48353  1.0000
  O   O86       1.0  0.22581  0.8968  0.48353  1.0000
  O   O87       1.0  0.22581  0.8532  0.26647  1.0000
  O   O88       1.0  0.52419  0.8968  0.26647  1.0000
  O   O89       1.0  0.9835300000000001  0.52419  0.35319999999999996  1.0000
  O   O90       1.0  0.9835300000000001  0.22581  0.3968000000000001  1.0000
  O   O91       1.0  0.76647  0.22581  0.35319999999999996  1.0000
  O   O92       1.0  0.76647  0.52419  0.3968000000000001  1.0000
  O   O93       1.0  0.8532  0.9835300000000001  0.02419  1.0000
  O   O94       1.0  0.8968  0.9835300000000001  0.72581  1.0000
  O   O95       1.0  0.8532  0.76647  0.72581  1.0000
  O   O96       1.0  0.8968  0.76647  0.02419  1.0000
  C   C1        1.0  0.03277  0.71723  0.53277  1.0000
  C   C2        1.0  0.21723  0.53277  0.53277  1.0000
  C   C3        1.0  0.21723  0.71723  0.71723  1.0000
  C   C4        1.0  0.03277  0.53277  0.71723  1.0000
  C   C5        1.0  0.53277  0.03277  0.71723  1.0000
  C   C6        1.0  0.53277  0.21723  0.53277  1.0000
  C   C7        1.0  0.71723  0.21723  0.71723  1.0000
  C   C8        1.0  0.71723  0.03277  0.53277  1.0000
  C   C9        1.0  0.71723  0.53277  0.03277  1.0000
  C   C10       1.0  0.53277  0.53277  0.21723  1.0000
  C   C11       1.0  0.71723  0.71723  0.21723  1.0000
  C   C12       1.0  0.53277  0.71723  0.03277  1.0000
  C   C13       1.0  0.03277  0.21723000000000003  0.032769999999999966  1.0000
  C   C14       1.0  0.21723  0.032769999999999966  0.032769999999999966  1.0000
  C   C15       1.0  0.21723  0.21723000000000003  0.21723000000000003  1.0000
  C   C16       1.0  0.03277  0.032769999999999966  0.21723000000000003  1.0000
  C   C17       1.0  0.9672300000000001  0.28276999999999997  0.46723000000000003  1.0000
  C   C18       1.0  0.78277  0.46723000000000003  0.46723000000000003  1.0000
  C   C19       1.0  0.78277  0.28276999999999997  0.28276999999999997  1.0000
  C   C20       1.0  0.9672300000000001  0.46723000000000003  0.28276999999999997  1.0000
  C   C21       1.0  0.46723000000000003  0.9672300000000001  0.28276999999999997  1.0000
  C   C22       1.0  0.46723000000000003  0.78277  0.46723000000000003  1.0000
  C   C23       1.0  0.28276999999999997  0.78277  0.28276999999999997  1.0000
  C   C24       1.0  0.28276999999999997  0.9672300000000001  0.46723000000000003  1.0000
  C   C25       1.0  0.28276999999999997  0.46723000000000003  0.9672300000000001  1.0000
  C   C26       1.0  0.46723000000000003  0.46723000000000003  0.78277  1.0000
  C   C27       1.0  0.28276999999999997  0.28276999999999997  0.78277  1.0000
  C   C28       1.0  0.46723000000000003  0.28276999999999997  0.9672300000000001  1.0000
  C   C29       1.0  0.9672300000000001  0.78277  0.9672300000000001  1.0000
  C   C30       1.0  0.78277  0.9672300000000001  0.9672300000000001  1.0000
  C   C31       1.0  0.78277  0.78277  0.78277  1.0000
  C   C32       1.0  0.9672300000000001  0.9672300000000001  0.78277  1.0000
  Cl  Cl1       1.0  0.25  0.25  0.5  1.0000
  Cl  Cl2       1.0  0.0  0.0  0.5  1.0000
  Cl  Cl3       1.0  0.0  0.25  0.75  1.0000
  Cl  Cl4       1.0  0.25  0.0  0.75  1.0000
  Cl  Cl5       1.0  0.5  0.25  0.25  1.0000
  Cl  Cl6       1.0  0.5  0.0  0.0  1.0000
  Cl  Cl7       1.0  0.75  0.0  0.25  1.0000
  Cl  Cl8       1.0  0.75  0.25  0.0  1.0000
  Cl  Cl9       1.0  0.25  0.5  0.25  1.0000
  Cl  Cl10      1.0  0.0  0.5  0.0  1.0000
  Cl  Cl11      1.0  0.25  0.75  0.0  1.0000
  Cl  Cl12      1.0  0.0  0.75  0.25  1.0000
  Cl  Cl13      1.0  0.5  0.75  0.75  1.0000
  Cl  Cl14      1.0  0.5  0.5  0.5  1.0000
  Cl  Cl15      1.0  0.75  0.5  0.75  1.0000
  Cl  Cl16      1.0  0.75  0.75  0.5  1.0000
