data_image0
_chemical_formula_structural       Sn8I32
_chemical_formula_sum              "Sn8 I32"
_cell_length_a       12.23
_cell_length_b       12.23
_cell_length_c       12.23
_cell_angle_alpha    90.0
_cell_angle_beta     90.0
_cell_angle_gamma    90.0

_space_group_name_H-M_alt    "P 1"
_space_group_IT_number       1

loop_
  _space_group_symop_operation_xyz
  'x, y, z'

loop_
  _atom_site_type_symbol
  _atom_site_label
  _atom_site_symmetry_multiplicity
  _atom_site_fract_x
  _atom_site_fract_y
  _atom_site_fract_z
  _atom_site_occupancy
  Sn  Sn1       1.0  0.129  0.129  0.129  1.0000
  Sn  Sn2       1.0  0.629  0.371  0.8710000000000001  1.0000
  Sn  Sn3       1.0  0.8710000000000001  0.629  0.371  1.0000
  Sn  Sn4       1.0  0.371  0.8710000000000001  0.629  1.0000
  Sn  Sn5       1.0  0.8710000000000001  0.8710000000000001  0.8710000000000001  1.0000
  Sn  Sn6       1.0  0.371  0.629  0.129  1.0000
  Sn  Sn7       1.0  0.129  0.371  0.629  1.0000
  Sn  Sn8       1.0  0.629  0.129  0.371  1.0000
  I   I1        1.0  0.253  0.253  0.253  1.0000
  I   I2        1.0  0.753  0.247  0.7470000000000001  1.0000
  I   I3        1.0  0.7470000000000001  0.753  0.247  1.0000
  I   I4        1.0  0.247  0.7470000000000001  0.753  1.0000
  I   I5        1.0  0.7470000000000001  0.7470000000000001  0.7470000000000001  1.0000
  I   I6        1.0  0.247  0.753  0.253  1.0000
  I   I7        1.0  0.253  0.247  0.753  1.0000
  I   I8        1.0  0.753  0.253  0.247  1.0000
  I   I9        1.0  0.009000000000000001  0.001  0.253  1.0000
  I   I10       1.0  0.509  0.49900000000000005  0.7470000000000001  1.0000
  I   I11       1.0  0.991  0.501  0.247  1.0000
  I   I12       1.0  0.491  0.999  0.753  1.0000
  I   I13       1.0  0.001  0.253  0.009000000000000001  1.0000
  I   I14       1.0  0.49900000000000005  0.7470000000000001  0.509  1.0000
  I   I15       1.0  0.501  0.247  0.991  1.0000
  I   I16       1.0  0.999  0.753  0.491  1.0000
  I   I17       1.0  0.253  0.009000000000000001  0.001  1.0000
  I   I18       1.0  0.7470000000000001  0.509  0.49900000000000005  1.0000
  I   I19       1.0  0.247  0.991  0.501  1.0000
  I   I20       1.0  0.753  0.491  0.999  1.0000
  I   I21       1.0  0.991  0.999  0.7470000000000001  1.0000
  I   I22       1.0  0.491  0.501  0.253  1.0000
  I   I23       1.0  0.009000000000000001  0.49900000000000005  0.753  1.0000
  I   I24       1.0  0.509  0.001  0.247  1.0000
  I   I25       1.0  0.999  0.7470000000000001  0.991  1.0000
  I   I26       1.0  0.501  0.253  0.491  1.0000
  I   I27       1.0  0.49900000000000005  0.753  0.009000000000000001  1.0000
  I   I28       1.0  0.001  0.247  0.509  1.0000
  I   I29       1.0  0.7470000000000001  0.991  0.999  1.0000
  I   I30       1.0  0.253  0.491  0.501  1.0000
  I   I31       1.0  0.753  0.009000000000000001  0.49900000000000005  1.0000
  I   I32       1.0  0.247  0.509  0.001  1.0000
