data_image0
_chemical_formula_structural       Na6Te2P4O28H2
_chemical_formula_sum              "Na6 Te2 P4 O28 H2"
_cell_length_a       7.883
_cell_length_b       7.882999999999999
_cell_length_c       10.863
_cell_angle_alpha    90.0
_cell_angle_beta     90.0
_cell_angle_gamma    119.99999999999999

_space_group_name_H-M_alt    "P 1"
_space_group_IT_number       1

loop_
  _space_group_symop_operation_xyz
  'x, y, z'

loop_
  _atom_site_type_symbol
  _atom_site_label
  _atom_site_symmetry_multiplicity
  _atom_site_fract_x
  _atom_site_fract_y
  _atom_site_fract_z
  _atom_site_occupancy
  Na  Na1       1.0  0.5292  0.05830000000000001  0.25  1.0000
  Na  Na2       1.0  0.9417  0.47090000000000004  0.25  1.0000
  Na  Na3       1.0  0.5291  0.47080000000000005  0.25  1.0000
  Na  Na4       1.0  0.058300000000000005  0.5292  0.75  1.0000
  Na  Na5       1.0  0.4709  0.9417  0.75  1.0000
  Na  Na6       1.0  0.4708  0.5291  0.75  1.0000
  Te  Te1       1.0  0.0  0.0  0.25  1.0000
  Te  Te2       1.0  0.0  0.0  0.75  1.0000
  P   P1        1.0  0.6667000000000002  0.3333  0.52169  1.0000
  P   P2        1.0  0.3333000000000001  0.6667000000000002  0.47831000000000007  1.0000
  P   P3        1.0  0.33330000000000004  0.6667000000000002  0.021689999999999987  1.0000
  P   P4        1.0  0.6667000000000002  0.3333  0.9783099999999999  1.0000
  O   O1        1.0  0.209  0.012600000000000004  0.3482  1.0000
  O   O2        1.0  0.9874  0.19640000000000002  0.3482  1.0000
  O   O3        1.0  0.8036  0.791  0.3482  1.0000
  O   O4        1.0  0.0126  0.209  0.6517999999999999  1.0000
  O   O5        1.0  0.1964000000000001  0.9874  0.6517999999999999  1.0000
  O   O6        1.0  0.7910000000000001  0.8036000000000001  0.6517999999999999  1.0000
  O   O7        1.0  0.7910000000000003  0.9874  0.8482  1.0000
  O   O8        1.0  0.012600000000000038  0.8036000000000001  0.8482  1.0000
  O   O9        1.0  0.19640000000000002  0.209  0.8482  1.0000
  O   O10       1.0  0.9873999999999999  0.791  0.1518  1.0000
  O   O11       1.0  0.8036  0.012600000000000004  0.1518  1.0000
  O   O12       1.0  0.209  0.19640000000000002  0.1518  1.0000
  O   O13       1.0  0.6667000000000002  0.3333  0.38330000000000003  1.0000
  O   O14       1.0  0.3333000000000001  0.6667000000000002  0.6167  1.0000
  O   O15       1.0  0.33330000000000004  0.6667000000000002  0.8833  1.0000
  O   O16       1.0  0.6667000000000002  0.3333  0.11669999999999997  1.0000
  O   O17       1.0  0.6469  0.1401  0.5759  1.0000
  O   O18       1.0  0.8599  0.5068  0.5759  1.0000
  O   O19       1.0  0.4932  0.3531  0.5759  1.0000
  O   O20       1.0  0.14010000000000006  0.6469000000000001  0.4241  1.0000
  O   O21       1.0  0.5068  0.8599  0.4241  1.0000
  O   O22       1.0  0.3531  0.4932  0.4241  1.0000
  O   O23       1.0  0.35309999999999997  0.8599  0.07589999999999986  1.0000
  O   O24       1.0  0.14010000000000003  0.4932  0.07589999999999986  1.0000
  O   O25       1.0  0.5068000000000001  0.6469000000000001  0.07589999999999986  1.0000
  O   O26       1.0  0.8599  0.3531  0.9241  1.0000
  O   O27       1.0  0.4932  0.1401  0.9241  1.0000
  O   O28       1.0  0.6469  0.5068  0.9241  1.0000
  H   H1        1.0  0.0  0.0  0.0  4.5000
  H   H2        1.0  0.0  0.0  0.5  4.5000
