data_image0
_chemical_formula_structural       Cu4As4S4
_chemical_formula_sum              "Cu4 As4 S4"
_cell_length_a       11.347
_cell_length_b       3.7533
_cell_length_c       5.453
_cell_angle_alpha    90.0
_cell_angle_beta     90.0
_cell_angle_gamma    90.0

_space_group_name_H-M_alt    "P 1"
_space_group_IT_number       1

loop_
  _space_group_symop_operation_xyz
  'x, y, z'

loop_
  _atom_site_type_symbol
  _atom_site_label
  _atom_site_symmetry_multiplicity
  _atom_site_fract_x
  _atom_site_fract_y
  _atom_site_fract_z
  _atom_site_occupancy
  Cu  Cu1       1.0  0.17454  0.24999999999999994  0.06264  1.0000
  Cu  Cu2       1.0  0.32545999999999997  0.75  0.56264  1.0000
  Cu  Cu3       1.0  0.67454  0.24999999999999997  0.4373599999999999  1.0000
  Cu  Cu4       1.0  0.82546  0.75  0.93736  1.0000
  As  As1       1.0  0.01373  0.24999999999999994  0.35177  1.0000
  As  As2       1.0  0.48627  0.75  0.8517700000000001  1.0000
  As  As3       1.0  0.51373  0.24999999999999997  0.14822999999999997  1.0000
  As  As4       1.0  0.9862699999999999  0.75  0.64823  1.0000
  S   S1        1.0  0.16576  0.75  0.8196  1.0000
  S   S2        1.0  0.33424  0.24999999999999997  0.3195999999999999  1.0000
  S   S3        1.0  0.66576  0.75  0.6804  1.0000
  S   S4        1.0  0.83424  0.24999999999999997  0.1804  1.0000
