data_image0
_chemical_formula_structural       In32S64
_chemical_formula_sum              "In32 S64"
_cell_length_a       16.354
_cell_length_b       16.035
_cell_length_c       19.793
_cell_angle_alpha    90.0
_cell_angle_beta     90.0
_cell_angle_gamma    90.0

_space_group_name_H-M_alt    "P 1"
_space_group_IT_number       1

loop_
  _space_group_symop_operation_xyz
  'x, y, z'

loop_
  _atom_site_type_symbol
  _atom_site_label
  _atom_site_symmetry_multiplicity
  _atom_site_fract_x
  _atom_site_fract_y
  _atom_site_fract_z
  _atom_site_occupancy
  In  In1       1.0  0.13919000000000006  0.23289000000000007  0.19213  1.0000
  In  In2       1.0  0.86081  0.76711  0.19213  1.0000
  In  In3       1.0  0.38919000000000004  0.01710999999999996  0.44212999999999997  1.0000
  In  In4       1.0  0.11080999999999996  0.48289000000000004  0.44212999999999997  1.0000
  In  In5       1.0  0.13919000000000006  0.73289  0.69213  1.0000
  In  In6       1.0  0.86081  0.26710999999999996  0.69213  1.0000
  In  In7       1.0  0.38919000000000004  0.51711  0.94213  1.0000
  In  In8       1.0  0.11080999999999996  0.98289  0.94213  1.0000
  In  In9       1.0  0.63919  0.23289000000000007  0.69213  1.0000
  In  In10      1.0  0.36080999999999996  0.76711  0.69213  1.0000
  In  In11      1.0  0.88919  0.01710999999999996  0.94213  1.0000
  In  In12      1.0  0.61081  0.48289000000000004  0.94213  1.0000
  In  In13      1.0  0.63919  0.73289  0.19213  1.0000
  In  In14      1.0  0.36080999999999996  0.26710999999999996  0.19213  1.0000
  In  In15      1.0  0.88919  0.51711  0.44212999999999997  1.0000
  In  In16      1.0  0.61081  0.98289  0.44212999999999997  1.0000
  In  In17      1.0  0.26553  0.13657  0.3272  1.0000
  In  In18      1.0  0.73447  0.86343  0.3272  1.0000
  In  In19      1.0  0.51553  0.11343  0.5771999999999999  1.0000
  In  In20      1.0  0.98447  0.38656999999999997  0.5771999999999999  1.0000
  In  In21      1.0  0.26553  0.63657  0.8271999999999999  1.0000
  In  In22      1.0  0.73447  0.36343000000000003  0.8271999999999999  1.0000
  In  In23      1.0  0.51553  0.61343  0.07719999999999994  1.0000
  In  In24      1.0  0.98447  0.88657  0.07719999999999994  1.0000
  In  In25      1.0  0.76553  0.13657  0.8271999999999999  1.0000
  In  In26      1.0  0.23447  0.86343  0.8271999999999999  1.0000
  In  In27      1.0  0.015530000000000042  0.11343  0.07719999999999994  1.0000
  In  In28      1.0  0.48447  0.38656999999999997  0.07719999999999994  1.0000
  In  In29      1.0  0.76553  0.63657  0.3272  1.0000
  In  In30      1.0  0.23447  0.36343000000000003  0.3272  1.0000
  In  In31      1.0  0.015530000000000042  0.61343  0.5771999999999999  1.0000
  In  In32      1.0  0.48447  0.88657  0.5771999999999999  1.0000
  S   S1        1.0  0.12008  0.3537  0.26147  1.0000
  S   S2        1.0  0.87992  0.6463  0.26147  1.0000
  S   S3        1.0  0.37008  0.8963  0.51147  1.0000
  S   S4        1.0  0.12991999999999998  0.6037  0.51147  1.0000
  S   S5        1.0  0.12008  0.8537  0.76147  1.0000
  S   S6        1.0  0.87992  0.14629999999999999  0.76147  1.0000
  S   S7        1.0  0.37008  0.3963  0.011470000000000091  1.0000
  S   S8        1.0  0.12991999999999998  0.1036999999999999  0.011470000000000091  1.0000
  S   S9        1.0  0.62008  0.3537  0.76147  1.0000
  S   S10       1.0  0.37992000000000004  0.6463  0.76147  1.0000
  S   S11       1.0  0.87008  0.8963  0.011470000000000091  1.0000
  S   S12       1.0  0.62992  0.6037  0.011470000000000091  1.0000
  S   S13       1.0  0.62008  0.8537  0.26147  1.0000
  S   S14       1.0  0.37992000000000004  0.14629999999999999  0.26147  1.0000
  S   S15       1.0  0.87008  0.3963  0.51147  1.0000
  S   S16       1.0  0.62992  0.1036999999999999  0.51147  1.0000
  S   S17       1.0  0.14918  0.1161  0.26057  1.0000
  S   S18       1.0  0.8508200000000001  0.8839  0.26057  1.0000
  S   S19       1.0  0.39918  0.13390000000000002  0.51057  1.0000
  S   S20       1.0  0.10081999999999999  0.3661  0.51057  1.0000
  S   S21       1.0  0.14918  0.6161000000000001  0.76057  1.0000
  S   S22       1.0  0.8508200000000001  0.3839  0.76057  1.0000
  S   S23       1.0  0.39918  0.6339  0.010569999999999968  1.0000
  S   S24       1.0  0.10081999999999999  0.8661  0.010569999999999968  1.0000
  S   S25       1.0  0.64918  0.1161  0.76057  1.0000
  S   S26       1.0  0.35082  0.8839  0.76057  1.0000
  S   S27       1.0  0.89918  0.13390000000000002  0.010569999999999968  1.0000
  S   S28       1.0  0.6008200000000001  0.3661  0.010569999999999968  1.0000
  S   S29       1.0  0.64918  0.6161000000000001  0.26057  1.0000
  S   S30       1.0  0.35082  0.3839  0.26057  1.0000
  S   S31       1.0  0.89918  0.6339  0.51057  1.0000
  S   S32       1.0  0.6008200000000001  0.8661  0.51057  1.0000
  S   S33       1.0  0.2359  0.4844  0.38585  1.0000
  S   S34       1.0  0.7641  0.5156000000000001  0.38585  1.0000
  S   S35       1.0  0.4859  0.7656000000000002  0.63585  1.0000
  S   S36       1.0  0.014100000000000001  0.7343999999999999  0.63585  1.0000
  S   S37       1.0  0.2359  0.9843999999999999  0.8858499999999999  1.0000
  S   S38       1.0  0.7641  0.015600000000000003  0.8858499999999999  1.0000
  S   S39       1.0  0.4859  0.2656  0.13585000000000003  1.0000
  S   S40       1.0  0.014100000000000001  0.23439999999999994  0.13585000000000003  1.0000
  S   S41       1.0  0.7359  0.4844  0.8858499999999999  1.0000
  S   S42       1.0  0.2641  0.5156000000000001  0.8858499999999999  1.0000
  S   S43       1.0  0.9858999999999999  0.7656000000000002  0.13585000000000003  1.0000
  S   S44       1.0  0.5141  0.7343999999999999  0.13585000000000003  1.0000
  S   S45       1.0  0.7359  0.9843999999999999  0.38585  1.0000
  S   S46       1.0  0.2641  0.015600000000000003  0.38585  1.0000
  S   S47       1.0  0.9858999999999999  0.2656  0.63585  1.0000
  S   S48       1.0  0.5141  0.23439999999999994  0.63585  1.0000
  S   S49       1.0  0.25  0.25  0.397  1.0000
  S   S50       1.0  0.75  0.7500000000000001  0.397  1.0000
  S   S51       1.0  0.5  0.0  0.647  1.0000
  S   S52       1.0  0.0  0.5  0.647  1.0000
  S   S53       1.0  0.25  0.7500000000000001  0.897  1.0000
  S   S54       1.0  0.75  0.25  0.897  1.0000
  S   S55       1.0  0.5  0.5  0.14700000000000002  1.0000
  S   S56       1.0  0.0  0.0  0.14700000000000002  1.0000
  S   S57       1.0  0.25  0.25  0.12  1.0000
  S   S58       1.0  0.75  0.7500000000000001  0.12  1.0000
  S   S59       1.0  0.5  0.0  0.37  1.0000
  S   S60       1.0  0.0  0.5  0.37  1.0000
  S   S61       1.0  0.25  0.7500000000000001  0.62  1.0000
  S   S62       1.0  0.75  0.25  0.62  1.0000
  S   S63       1.0  0.5  0.5  0.87  1.0000
  S   S64       1.0  0.0  0.0  0.87  1.0000
