data_image0
_chemical_formula_structural       Ag12V4O16
_chemical_formula_sum              "Ag12 V4 O16"
_cell_length_a       10.1885
_cell_length_b       4.9751
_cell_length_c       10.201399999999998
_cell_angle_alpha    90.0
_cell_angle_beta     115.75399999999999
_cell_angle_gamma    90.0

_space_group_name_H-M_alt    "P 1"
_space_group_IT_number       1

loop_
  _space_group_symop_operation_xyz
  'x, y, z'

loop_
  _atom_site_type_symbol
  _atom_site_label
  _atom_site_symmetry_multiplicity
  _atom_site_fract_x
  _atom_site_fract_y
  _atom_site_fract_z
  _atom_site_occupancy
  Ag  Ag1       1.0  0.23997  0.03982  0.09805  1.0000
  Ag  Ag2       1.0  0.76003  0.03982  0.40195000000000003  1.0000
  Ag  Ag3       1.0  0.73997  0.53982  0.09805  1.0000
  Ag  Ag4       1.0  0.26003  0.53982  0.40195000000000003  1.0000
  Ag  Ag5       1.0  0.76003  0.96018  0.9019499999999999  1.0000
  Ag  Ag6       1.0  0.23996999999999996  0.96018  0.5980499999999999  1.0000
  Ag  Ag7       1.0  0.26002999999999993  0.4601799999999999  0.9019499999999999  1.0000
  Ag  Ag8       1.0  0.73997  0.4601799999999999  0.5980499999999999  1.0000
  Ag  Ag9       1.0  0.5  0.0  0.5  1.0000
  Ag  Ag10      1.0  0.5  0.0  0.0  1.0000
  Ag  Ag11      1.0  0.0  0.5  0.5  1.0000
  Ag  Ag12      1.0  0.0  0.5  0.0  1.0000
  V   V1        1.0  0.5  0.4638  0.25  1.0000
  V   V2        1.0  0.0  0.9638  0.25  1.0000
  V   V3        1.0  0.5  0.5361999999999999  0.75  1.0000
  V   V4        1.0  0.0  0.03620000000000001  0.75  1.0000
  O   O1        1.0  0.3815000000000002  0.2655  0.2886  1.0000
  O   O2        1.0  0.6184999999999999  0.2655  0.21139999999999998  1.0000
  O   O3        1.0  0.8815000000000002  0.7655000000000001  0.2886  1.0000
  O   O4        1.0  0.1184999999999999  0.7655000000000001  0.21139999999999998  1.0000
  O   O5        1.0  0.6184999999999999  0.7344999999999999  0.7114  1.0000
  O   O6        1.0  0.3815000000000001  0.7344999999999999  0.7886  1.0000
  O   O7        1.0  0.1184999999999999  0.2345  0.7114  1.0000
  O   O8        1.0  0.8815000000000002  0.2345  0.7886  1.0000
  O   O9        1.0  0.09330000000000004  0.8341000000000001  0.8971  1.0000
  O   O10       1.0  0.9067  0.8341000000000001  0.6029  1.0000
  O   O11       1.0  0.5933  0.3341  0.8971  1.0000
  O   O12       1.0  0.4067  0.3341  0.6029  1.0000
  O   O13       1.0  0.9067  0.1659  0.1029  1.0000
  O   O14       1.0  0.09330000000000001  0.1659  0.3971  1.0000
  O   O15       1.0  0.4067  0.6658999999999999  0.1029  1.0000
  O   O16       1.0  0.5933  0.6658999999999999  0.3971  1.0000
