data_image0
_chemical_formula_structural       Se16V8O48
_chemical_formula_sum              "Se16 V8 O48"
_cell_length_a       11.22
_cell_length_b       11.22
_cell_length_c       7.86
_cell_angle_alpha    90.0
_cell_angle_beta     90.0
_cell_angle_gamma    90.0

_space_group_name_H-M_alt    "P 1"
_space_group_IT_number       1

loop_
  _space_group_symop_operation_xyz
  'x, y, z'

loop_
  _atom_site_type_symbol
  _atom_site_label
  _atom_site_symmetry_multiplicity
  _atom_site_fract_x
  _atom_site_fract_y
  _atom_site_fract_z
  _atom_site_occupancy
  Se  Se1       1.0  0.10330000000000003  0.2405  0.9485  1.0000
  Se  Se2       1.0  0.8966999999999999  0.7595000000000002  0.9485  1.0000
  Se  Se3       1.0  0.7595000000000002  0.10330000000000003  0.9485  1.0000
  Se  Se4       1.0  0.2405  0.8966999999999999  0.9485  1.0000
  Se  Se5       1.0  0.10330000000000003  0.7595000000000002  0.44850000000000007  1.0000
  Se  Se6       1.0  0.8966999999999999  0.2405  0.44850000000000007  1.0000
  Se  Se7       1.0  0.7595000000000002  0.8966999999999999  0.44850000000000007  1.0000
  Se  Se8       1.0  0.2405  0.10330000000000003  0.44850000000000007  1.0000
  Se  Se9       1.0  0.3671  0.28180000000000005  0.0515  1.0000
  Se  Se10      1.0  0.6329  0.7182  0.0515  1.0000
  Se  Se11      1.0  0.7182  0.3671  0.0515  1.0000
  Se  Se12      1.0  0.28180000000000005  0.6329  0.0515  1.0000
  Se  Se13      1.0  0.3671  0.7182  0.5515  1.0000
  Se  Se14      1.0  0.6329  0.28180000000000005  0.5515  1.0000
  Se  Se15      1.0  0.7182  0.6329  0.5515  1.0000
  Se  Se16      1.0  0.28180000000000005  0.3671  0.5515  1.0000
  V   V1        1.0  0.0  0.0  0.12000000000000002  1.0000
  V   V2        1.0  0.0  0.0  0.62  1.0000
  V   V3        1.0  0.5  0.5  0.3759  1.0000
  V   V4        1.0  0.5  0.5  0.8759000000000001  1.0000
  V   V5        1.0  0.0  0.5  0.04570000000000001  1.0000
  V   V6        1.0  0.5  0.0  0.04570000000000001  1.0000
  V   V7        1.0  0.0  0.5  0.5457  1.0000
  V   V8        1.0  0.5  0.0  0.5457  1.0000
  O   O1        1.0  0.0  0.0  0.32600000000000007  1.0000
  O   O2        1.0  0.0  0.0  0.8260000000000001  1.0000
  O   O3        1.0  0.5  0.5  0.172  1.0000
  O   O4        1.0  0.5  0.5  0.6719999999999999  1.0000
  O   O5        1.0  0.0  0.5  0.34  1.0000
  O   O6        1.0  0.5  0.0  0.34  1.0000
  O   O7        1.0  0.0  0.5  0.8400000000000002  1.0000
  O   O8        1.0  0.5  0.0  0.8400000000000002  1.0000
  O   O9        1.0  0.1233  0.12000000000000002  0.079  1.0000
  O   O10       1.0  0.8767  0.8800000000000001  0.079  1.0000
  O   O11       1.0  0.8800000000000001  0.1233  0.079  1.0000
  O   O12       1.0  0.12000000000000002  0.8767  0.079  1.0000
  O   O13       1.0  0.1233  0.8800000000000001  0.579  1.0000
  O   O14       1.0  0.8767  0.12000000000000002  0.579  1.0000
  O   O15       1.0  0.8800000000000001  0.8767  0.579  1.0000
  O   O16       1.0  0.12000000000000002  0.1233  0.579  1.0000
  O   O17       1.0  0.2546  0.25500000000000006  0.3890000000000001  1.0000
  O   O18       1.0  0.7454000000000001  0.7449999999999999  0.3890000000000001  1.0000
  O   O19       1.0  0.7449999999999999  0.2546  0.3890000000000001  1.0000
  O   O20       1.0  0.25500000000000006  0.7454000000000001  0.3890000000000001  1.0000
  O   O21       1.0  0.2546  0.7449999999999999  0.889  1.0000
  O   O22       1.0  0.7454000000000001  0.25500000000000006  0.889  1.0000
  O   O23       1.0  0.7449999999999999  0.7454000000000001  0.889  1.0000
  O   O24       1.0  0.25500000000000006  0.2546  0.889  1.0000
  O   O25       1.0  0.0919  0.3511  0.095  1.0000
  O   O26       1.0  0.9081000000000001  0.6489  0.095  1.0000
  O   O27       1.0  0.6489  0.0919  0.095  1.0000
  O   O28       1.0  0.3511  0.9081000000000001  0.095  1.0000
  O   O29       1.0  0.0919  0.6489  0.5950000000000001  1.0000
  O   O30       1.0  0.9081000000000001  0.3511  0.5950000000000001  1.0000
  O   O31       1.0  0.6489  0.9081000000000001  0.5950000000000001  1.0000
  O   O32       1.0  0.3511  0.0919  0.5950000000000001  1.0000
  O   O33       1.0  0.3271  0.47590000000000005  0.4170000000000001  1.0000
  O   O34       1.0  0.6729  0.5241  0.4170000000000001  1.0000
  O   O35       1.0  0.5241  0.3271  0.4170000000000001  1.0000
  O   O36       1.0  0.47590000000000005  0.6729  0.4170000000000001  1.0000
  O   O37       1.0  0.3271  0.5241  0.917  1.0000
  O   O38       1.0  0.6729  0.47590000000000005  0.917  1.0000
  O   O39       1.0  0.5241  0.6729  0.917  1.0000
  O   O40       1.0  0.47590000000000005  0.3271  0.917  1.0000
  O   O41       1.0  0.40590000000000004  0.14320000000000002  0.099  1.0000
  O   O42       1.0  0.5941000000000001  0.8568  0.099  1.0000
  O   O43       1.0  0.8568  0.40590000000000004  0.099  1.0000
  O   O44       1.0  0.14320000000000002  0.5941000000000001  0.099  1.0000
  O   O45       1.0  0.40590000000000004  0.8568  0.599  1.0000
  O   O46       1.0  0.5941000000000001  0.14320000000000002  0.599  1.0000
  O   O47       1.0  0.8568  0.5941000000000001  0.599  1.0000
  O   O48       1.0  0.14320000000000002  0.40590000000000004  0.599  1.0000
