data_image0
_chemical_formula_structural       Pd4P8Li8O28
_chemical_formula_sum              "Pd4 P8 Li8 O28"
_cell_length_a       12.5858
_cell_length_b       7.4955
_cell_length_c       5.8116
_cell_angle_alpha    90.0
_cell_angle_beta     90.0
_cell_angle_gamma    90.0

_space_group_name_H-M_alt    "P 1"
_space_group_IT_number       1

loop_
  _space_group_symop_operation_xyz
  'x, y, z'

loop_
  _atom_site_type_symbol
  _atom_site_label
  _atom_site_symmetry_multiplicity
  _atom_site_fract_x
  _atom_site_fract_y
  _atom_site_fract_z
  _atom_site_occupancy
  Pd  Pd1       1.0  0.0  0.0  0.0  1.0000
  Pd  Pd2       1.0  0.0  0.5  0.0  1.0000
  Pd  Pd3       1.0  0.5  0.5  0.5  1.0000
  Pd  Pd4       1.0  0.5  0.0  0.5  1.0000
  P   P1        1.0  0.1136  0.25  0.35870000000000013  1.0000
  P   P2        1.0  0.1136  0.7500000000000001  0.6413  1.0000
  P   P3        1.0  0.8864  0.7500000000000001  0.6413  1.0000
  P   P4        1.0  0.8864  0.25  0.35870000000000013  1.0000
  P   P5        1.0  0.6136  0.7500000000000001  0.8587  1.0000
  P   P6        1.0  0.6136  0.25  0.14129999999999993  1.0000
  P   P7        1.0  0.38639999999999997  0.25  0.14129999999999993  1.0000
  P   P8        1.0  0.38639999999999997  0.7500000000000001  0.8587  1.0000
  Li  Li1       1.0  0.25  0.0  0.0  1.0000
  Li  Li2       1.0  0.25  0.5  0.0  1.0000
  Li  Li3       1.0  0.75  0.0  0.0  1.0000
  Li  Li4       1.0  0.75  0.5  0.0  1.0000
  Li  Li5       1.0  0.75  0.5  0.5  1.0000
  Li  Li6       1.0  0.75  0.0  0.5  1.0000
  Li  Li7       1.0  0.25  0.5  0.5  1.0000
  Li  Li8       1.0  0.25  0.0  0.5  1.0000
  O   O1        1.0  0.0  0.25  0.5008  1.0000
  O   O2        1.0  0.0  0.7500000000000001  0.4992  1.0000
  O   O3        1.0  0.5  0.7500000000000001  0.0007999999999999119  1.0000
  O   O4        1.0  0.5  0.25  0.9992000000000001  1.0000
  O   O5        1.0  0.3017  0.25  0.9515  1.0000
  O   O6        1.0  0.3017  0.7500000000000001  0.048499999999999995  1.0000
  O   O7        1.0  0.6982999999999999  0.7500000000000001  0.048499999999999995  1.0000
  O   O8        1.0  0.6982999999999999  0.25  0.9515  1.0000
  O   O9        1.0  0.8017000000000001  0.7500000000000001  0.45150000000000007  1.0000
  O   O10       1.0  0.8017000000000001  0.25  0.5485  1.0000
  O   O11       1.0  0.19829999999999998  0.25  0.5485  1.0000
  O   O12       1.0  0.19829999999999998  0.7500000000000001  0.45150000000000007  1.0000
  O   O13       1.0  0.11619999999999998  0.07850000000000003  0.21040000000000003  1.0000
  O   O14       1.0  0.11619999999999998  0.9215000000000001  0.7896  1.0000
  O   O15       1.0  0.11619999999999998  0.5785000000000001  0.7896  1.0000
  O   O16       1.0  0.11619999999999998  0.4215  0.21040000000000003  1.0000
  O   O17       1.0  0.8838  0.9215000000000001  0.7896  1.0000
  O   O18       1.0  0.8838  0.07850000000000003  0.21040000000000003  1.0000
  O   O19       1.0  0.8838  0.4215  0.21040000000000003  1.0000
  O   O20       1.0  0.8838  0.5785000000000001  0.7896  1.0000
  O   O21       1.0  0.6162  0.5785000000000001  0.7104000000000001  1.0000
  O   O22       1.0  0.6162  0.4215  0.2896  1.0000
  O   O23       1.0  0.6162  0.07850000000000003  0.2896  1.0000
  O   O24       1.0  0.6162  0.9215000000000001  0.7104000000000001  1.0000
  O   O25       1.0  0.38380000000000003  0.4215  0.2896  1.0000
  O   O26       1.0  0.38380000000000003  0.5785000000000001  0.7104000000000001  1.0000
  O   O27       1.0  0.38380000000000003  0.9215000000000001  0.7104000000000001  1.0000
  O   O28       1.0  0.38380000000000003  0.07850000000000003  0.2896  1.0000
