data_image0
_chemical_formula_structural       As4O16N8H36
_chemical_formula_sum              "As4 O16 N8 H36"
_cell_length_a       11.3426
_cell_length_b       6.8512
_cell_length_c       8.113
_cell_angle_alpha    90.0
_cell_angle_beta     113.784
_cell_angle_gamma    90.0

_space_group_name_H-M_alt    "P 1"
_space_group_IT_number       1

loop_
  _space_group_symop_operation_xyz
  'x, y, z'

loop_
  _atom_site_type_symbol
  _atom_site_label
  _atom_site_symmetry_multiplicity
  _atom_site_fract_x
  _atom_site_fract_y
  _atom_site_fract_z
  _atom_site_occupancy
  As  As1       1.0  0.249593  0.89261  0.4278599999999999  1.0000
  As  As2       1.0  0.7504069999999999  0.3926099999999999  0.07214000000000004  1.0000
  As  As3       1.0  0.7504069999999999  0.10738999999999999  0.5721400000000001  1.0000
  As  As4       1.0  0.24959299999999998  0.60739  0.9278599999999998  1.0000
  O   O1        1.0  0.20879  0.9789  0.2115  1.0000
  O   O2        1.0  0.79121  0.4788999999999998  0.2884999999999999  1.0000
  O   O3        1.0  0.79121  0.021100000000000004  0.7885  1.0000
  O   O4        1.0  0.20879  0.5211  0.7114999999999999  1.0000
  O   O5        1.0  0.25894  0.0977  0.5442  1.0000
  O   O6        1.0  0.7410600000000002  0.5977  0.9557999999999999  1.0000
  O   O7        1.0  0.7410600000000002  0.9023  0.4558  1.0000
  O   O8        1.0  0.25894  0.4023  0.04420000000000001  1.0000
  O   O9        1.0  0.38858  0.7692  0.4981999999999999  1.0000
  O   O10       1.0  0.6114200000000001  0.2692000000000001  0.0018000000000000793  1.0000
  O   O11       1.0  0.61142  0.2308  0.5018  1.0000
  O   O12       1.0  0.38858  0.7308  0.9982  1.0000
  O   O13       1.0  0.13016999999999995  0.7484  0.4288999999999999  1.0000
  O   O14       1.0  0.8698299999999999  0.24839999999999993  0.07110000000000005  1.0000
  O   O15       1.0  0.8698299999999999  0.25160000000000005  0.5711  1.0000
  O   O16       1.0  0.13016999999999992  0.7516  0.9288999999999998  1.0000
  N   N1        1.0  0.44933  0.12309999999999997  0.1532  1.0000
  N   N2        1.0  0.55067  0.6231  0.3468  1.0000
  N   N3        1.0  0.55067  0.8769  0.8468  1.0000
  N   N4        1.0  0.44933  0.37689999999999996  0.6531999999999999  1.0000
  N   N5        1.0  0.12139999999999998  0.3798  0.2643  1.0000
  N   N6        1.0  0.8785999999999999  0.8798  0.23570000000000002  1.0000
  N   N7        1.0  0.8785999999999999  0.6202  0.7356999999999999  1.0000
  N   N8        1.0  0.12139999999999998  0.12019999999999997  0.7643  1.0000
  H   H1        1.0  0.494  0.131  0.275  1.0000
  H   H2        1.0  0.506  0.6309999999999999  0.22499999999999998  1.0000
  H   H3        1.0  0.506  0.869  0.7249999999999999  1.0000
  H   H4        1.0  0.494  0.369  0.775  1.0000
  H   H5        1.0  0.42199999999999993  0.003  0.11399999999999998  1.0000
  H   H6        1.0  0.5780000000000001  0.503  0.38599999999999995  1.0000
  H   H7        1.0  0.5780000000000001  0.9969999999999999  0.8859999999999999  1.0000
  H   H8        1.0  0.42199999999999993  0.497  0.614  1.0000
  H   H9        1.0  0.388  0.209  0.11699999999999998  1.0000
  H   H10       1.0  0.6119999999999999  0.709  0.38299999999999995  1.0000
  H   H11       1.0  0.6119999999999999  0.7909999999999999  0.8829999999999999  1.0000
  H   H12       1.0  0.388  0.29100000000000004  0.617  1.0000
  H   H13       1.0  0.509  0.167  0.11099999999999997  1.0000
  H   H14       1.0  0.491  0.6669999999999999  0.389  1.0000
  H   H15       1.0  0.491  0.833  0.8889999999999999  1.0000
  H   H16       1.0  0.509  0.3329999999999999  0.611  1.0000
  H   H17       1.0  0.11799999999999997  0.491  0.3019999999999999  1.0000
  H   H18       1.0  0.8819999999999999  0.9909999999999999  0.19800000000000004  1.0000
  H   H19       1.0  0.8819999999999999  0.509  0.698  1.0000
  H   H20       1.0  0.11799999999999998  0.009000000000000008  0.8019999999999999  1.0000
  H   H21       1.0  0.16899999999999998  0.392  0.201  1.0000
  H   H22       1.0  0.831  0.892  0.299  1.0000
  H   H23       1.0  0.831  0.608  0.7989999999999999  1.0000
  H   H24       1.0  0.16899999999999996  0.10799999999999998  0.701  1.0000
  H   H25       1.0  0.045999999999999985  0.3359999999999999  0.20899999999999994  1.0000
  H   H26       1.0  0.9539999999999997  0.836  0.291  1.0000
  H   H27       1.0  0.9539999999999998  0.664  0.7909999999999999  1.0000
  H   H28       1.0  0.046  0.16400000000000003  0.709  1.0000
  H   H29       1.0  0.164  0.297  0.358  1.0000
  H   H30       1.0  0.836  0.7969999999999999  0.14200000000000002  1.0000
  H   H31       1.0  0.836  0.703  0.642  1.0000
  H   H32       1.0  0.16399999999999995  0.20299999999999999  0.8579999999999999  1.0000
  H   H33       1.0  0.18599999999999997  0.907  0.13899999999999996  1.0000
  H   H34       1.0  0.8140000000000001  0.40700000000000003  0.36099999999999993  1.0000
  H   H35       1.0  0.8140000000000001  0.09299999999999997  0.8609999999999999  1.0000
  H   H36       1.0  0.18599999999999997  0.593  0.639  1.0000
