data_image0
_chemical_formula_structural       In24Cu8Se48K16
_chemical_formula_sum              "In24 Cu8 Se48 K16"
_cell_length_a       11.445
_cell_length_b       11.495
_cell_length_c       21.262999999999998
_cell_angle_alpha    90.0
_cell_angle_beta     97.68000000000002
_cell_angle_gamma    90.0

_space_group_name_H-M_alt    "P 1"
_space_group_IT_number       1

loop_
  _space_group_symop_operation_xyz
  'x, y, z'

loop_
  _atom_site_type_symbol
  _atom_site_label
  _atom_site_symmetry_multiplicity
  _atom_site_fract_x
  _atom_site_fract_y
  _atom_site_fract_z
  _atom_site_occupancy
  In  In1       1.0  0.0  0.06353  0.75  1.0000
  In  In2       1.0  0.5  0.56353  0.75  1.0000
  In  In3       1.0  0.0  0.93647  0.25  1.0000
  In  In4       1.0  0.5  0.43647  0.25  1.0000
  In  In5       1.0  0.5  0.06102  0.75  1.0000
  In  In6       1.0  0.0  0.56102  0.75  1.0000
  In  In7       1.0  0.5  0.93898  0.25  1.0000
  In  In8       1.0  0.0  0.43898  0.25  1.0000
  In  In9       1.0  0.53417  0.8123599999999999  0.885094  1.0000
  In  In10      1.0  0.4658300000000001  0.8123599999999999  0.6149060000000001  1.0000
  In  In11      1.0  0.034170000000000034  0.31236  0.885094  1.0000
  In  In12      1.0  0.96583  0.31236  0.6149060000000001  1.0000
  In  In13      1.0  0.46583  0.18763999999999997  0.11490599999999995  1.0000
  In  In14      1.0  0.53417  0.18763999999999997  0.38509400000000005  1.0000
  In  In15      1.0  0.96583  0.68764  0.11490599999999995  1.0000
  In  In16      1.0  0.034170000000000034  0.68764  0.38509400000000005  1.0000
  In  In17      1.0  0.21643000000000004  0.06293  0.614721  1.0000
  In  In18      1.0  0.78357  0.06293  0.885279  1.0000
  In  In19      1.0  0.7164300000000001  0.56293  0.614721  1.0000
  In  In20      1.0  0.28357  0.56293  0.885279  1.0000
  In  In21      1.0  0.78357  0.9370699999999998  0.3852790000000001  1.0000
  In  In22      1.0  0.21643000000000004  0.9370699999999998  0.11472099999999986  1.0000
  In  In23      1.0  0.28357  0.43706999999999996  0.3852790000000001  1.0000
  In  In24      1.0  0.7164300000000001  0.43706999999999996  0.11472099999999986  1.0000
  Cu  Cu1       1.0  0.2512300000000001  0.8125899999999999  0.7499600000000001  1.0000
  Cu  Cu2       1.0  0.7487699999999999  0.8125899999999999  0.7500399999999999  1.0000
  Cu  Cu3       1.0  0.7512300000000002  0.31259  0.7499600000000001  1.0000
  Cu  Cu4       1.0  0.24876999999999994  0.31259  0.7500399999999999  1.0000
  Cu  Cu5       1.0  0.7487699999999999  0.18741000000000002  0.25003999999999993  1.0000
  Cu  Cu6       1.0  0.2512300000000001  0.18741000000000002  0.24996000000000018  1.0000
  Cu  Cu7       1.0  0.24876999999999994  0.6874100000000001  0.25003999999999993  1.0000
  Cu  Cu8       1.0  0.7512300000000002  0.6874100000000001  0.24996000000000018  1.0000
  Se  Se1       1.0  0.36296000000000006  0.20106  0.67919  1.0000
  Se  Se2       1.0  0.63704  0.20106  0.82081  1.0000
  Se  Se3       1.0  0.8629600000000002  0.7010599999999999  0.67919  1.0000
  Se  Se4       1.0  0.13703999999999994  0.7010599999999999  0.82081  1.0000
  Se  Se5       1.0  0.63704  0.79894  0.32081000000000004  1.0000
  Se  Se6       1.0  0.36296000000000006  0.79894  0.17918999999999996  1.0000
  Se  Se7       1.0  0.13703999999999994  0.29894  0.32081000000000004  1.0000
  Se  Se8       1.0  0.8629600000000002  0.29894  0.17918999999999996  1.0000
  Se  Se9       1.0  0.65676  0.6821999999999999  0.82044  1.0000
  Se  Se10      1.0  0.34324  0.6821999999999999  0.67956  1.0000
  Se  Se11      1.0  0.15676  0.18219999999999997  0.82044  1.0000
  Se  Se12      1.0  0.8432400000000001  0.18219999999999997  0.67956  1.0000
  Se  Se13      1.0  0.34324  0.3178  0.17956000000000005  1.0000
  Se  Se14      1.0  0.65676  0.3178  0.32044000000000006  1.0000
  Se  Se15      1.0  0.8432400000000001  0.8178  0.17956000000000005  1.0000
  Se  Se16      1.0  0.15676000000000004  0.8178  0.32044000000000006  1.0000
  Se  Se17      1.0  0.07559000000000005  0.19096  0.5403900000000001  1.0000
  Se  Se18      1.0  0.9244100000000001  0.19096  0.95961  1.0000
  Se  Se19      1.0  0.57559  0.69096  0.5403900000000001  1.0000
  Se  Se20      1.0  0.42441  0.69096  0.95961  1.0000
  Se  Se21      1.0  0.9244100000000001  0.8090400000000001  0.45960999999999985  1.0000
  Se  Se22      1.0  0.07559000000000005  0.8090400000000001  0.04039000000000015  1.0000
  Se  Se23      1.0  0.42441  0.30904  0.45960999999999985  1.0000
  Se  Se24      1.0  0.57559  0.30904  0.04039000000000015  1.0000
  Se  Se25      1.0  0.37894  0.94196  0.82051  1.0000
  Se  Se26      1.0  0.6210600000000001  0.94196  0.67949  1.0000
  Se  Se27      1.0  0.87894  0.44196  0.82051  1.0000
  Se  Se28      1.0  0.12106000000000001  0.44196  0.67949  1.0000
  Se  Se29      1.0  0.6210600000000001  0.058039999999999994  0.17949000000000004  1.0000
  Se  Se30      1.0  0.37894  0.058039999999999994  0.32051000000000013  1.0000
  Se  Se31      1.0  0.12106000000000001  0.55804  0.17949000000000004  1.0000
  Se  Se32      1.0  0.87894  0.55804  0.32051000000000013  1.0000
  Se  Se33      1.0  0.31882000000000005  0.93355  0.54006  1.0000
  Se  Se34      1.0  0.6811799999999999  0.93355  0.95994  1.0000
  Se  Se35      1.0  0.8188200000000002  0.43355  0.54006  1.0000
  Se  Se36      1.0  0.18117999999999998  0.43355  0.95994  1.0000
  Se  Se37      1.0  0.68118  0.06645  0.45994000000000007  1.0000
  Se  Se38      1.0  0.31882000000000005  0.06645  0.04005999999999999  1.0000
  Se  Se39      1.0  0.18117999999999998  0.56645  0.45994000000000007  1.0000
  Se  Se40      1.0  0.8188200000000002  0.56645  0.04005999999999999  1.0000
  Se  Se41      1.0  0.10192000000000007  0.9243200000000001  0.6792500000000001  1.0000
  Se  Se42      1.0  0.8980800000000001  0.9243200000000001  0.82075  1.0000
  Se  Se43      1.0  0.60192  0.42432000000000003  0.6792500000000001  1.0000
  Se  Se44      1.0  0.39807999999999993  0.42432000000000003  0.82075  1.0000
  Se  Se45      1.0  0.8980800000000001  0.07568  0.32074999999999987  1.0000
  Se  Se46      1.0  0.10192000000000007  0.07568  0.17925000000000013  1.0000
  Se  Se47      1.0  0.39807999999999993  0.57568  0.32074999999999987  1.0000
  Se  Se48      1.0  0.60192  0.57568  0.17925000000000013  1.0000
  K   K1        1.0  0.8367800000000001  0.9405599999999998  0.58256  1.0000
  K   K2        1.0  0.1632200000000001  0.9405599999999998  0.9174400000000001  1.0000
  K   K3        1.0  0.33678  0.44056  0.58256  1.0000
  K   K4        1.0  0.66322  0.44056  0.9174400000000001  1.0000
  K   K5        1.0  0.16322000000000003  0.05944  0.41744000000000003  1.0000
  K   K6        1.0  0.8367800000000001  0.05944  0.08255999999999998  1.0000
  K   K7        1.0  0.66322  0.55944  0.41744000000000003  1.0000
  K   K8        1.0  0.33678  0.55944  0.08255999999999998  1.0000
  K   K9        1.0  0.0791  0.68438  0.58258  1.0000
  K   K10       1.0  0.9209  0.68438  0.91742  1.0000
  K   K11       1.0  0.5791  0.18438  0.58258  1.0000
  K   K12       1.0  0.42090000000000005  0.18438  0.91742  1.0000
  K   K13       1.0  0.9209000000000003  0.31562  0.41742000000000007  1.0000
  K   K14       1.0  0.0791  0.31562  0.0825800000000001  1.0000
  K   K15       1.0  0.42090000000000005  0.81562  0.41742000000000007  1.0000
  K   K16       1.0  0.5791  0.81562  0.0825800000000001  1.0000
