data_image0
_chemical_formula_structural       U8Cs16Pd24Se48
_chemical_formula_sum              "U8 Cs16 Pd24 Se48"
_cell_length_a       10.1034
_cell_length_b       15.5046
_cell_length_c       17.5503
_cell_angle_alpha    90.0
_cell_angle_beta     90.0
_cell_angle_gamma    90.0

_space_group_name_H-M_alt    "P 1"
_space_group_IT_number       1

loop_
  _space_group_symop_operation_xyz
  'x, y, z'

loop_
  _atom_site_type_symbol
  _atom_site_label
  _atom_site_symmetry_multiplicity
  _atom_site_fract_x
  _atom_site_fract_y
  _atom_site_fract_z
  _atom_site_occupancy
  U   U1        1.0  0.0  0.0  0.166826  1.0000
  U   U2        1.0  0.0  0.0  0.8331739999999999  1.0000
  U   U3        1.0  0.0  0.5  0.666826  1.0000
  U   U4        1.0  0.0  0.5  0.33317399999999997  1.0000
  U   U5        1.0  0.5  0.0  0.666826  1.0000
  U   U6        1.0  0.5  0.0  0.33317399999999997  1.0000
  U   U7        1.0  0.5  0.5  0.166826  1.0000
  U   U8        1.0  0.5  0.5  0.8331739999999999  1.0000
  Cs  Cs1       1.0  0.25  0.25  0.25  1.0000
  Cs  Cs2       1.0  0.75  0.7500000000000001  0.25  1.0000
  Cs  Cs3       1.0  0.75  0.25  0.75  1.0000
  Cs  Cs4       1.0  0.25  0.7500000000000001  0.75  1.0000
  Cs  Cs5       1.0  0.75  0.7500000000000001  0.75  1.0000
  Cs  Cs6       1.0  0.25  0.25  0.75  1.0000
  Cs  Cs7       1.0  0.25  0.7500000000000001  0.25  1.0000
  Cs  Cs8       1.0  0.75  0.25  0.25  1.0000
  Cs  Cs9       1.0  0.0  0.30128  0.0  1.0000
  Cs  Cs10      1.0  0.0  0.69872  0.0  1.0000
  Cs  Cs11      1.0  0.0  0.80128  0.5  1.0000
  Cs  Cs12      1.0  0.0  0.19872  0.5  1.0000
  Cs  Cs13      1.0  0.5  0.30128  0.5  1.0000
  Cs  Cs14      1.0  0.5  0.69872  0.5  1.0000
  Cs  Cs15      1.0  0.5  0.80128  0.0  1.0000
  Cs  Cs16      1.0  0.5  0.19872  0.0  1.0000
  Pd  Pd1       1.0  0.33694  0.0  0.15828  1.0000
  Pd  Pd2       1.0  0.66306  0.0  0.15828  1.0000
  Pd  Pd3       1.0  0.66306  0.0  0.84172  1.0000
  Pd  Pd4       1.0  0.33694  0.0  0.84172  1.0000
  Pd  Pd5       1.0  0.33694  0.5  0.6582799999999999  1.0000
  Pd  Pd6       1.0  0.66306  0.5  0.6582799999999999  1.0000
  Pd  Pd7       1.0  0.66306  0.5  0.34171999999999997  1.0000
  Pd  Pd8       1.0  0.33694  0.5  0.34171999999999997  1.0000
  Pd  Pd9       1.0  0.83694  0.0  0.6582799999999999  1.0000
  Pd  Pd10      1.0  0.16305999999999998  0.0  0.6582799999999999  1.0000
  Pd  Pd11      1.0  0.16305999999999998  0.0  0.34171999999999997  1.0000
  Pd  Pd12      1.0  0.83694  0.0  0.34171999999999997  1.0000
  Pd  Pd13      1.0  0.83694  0.5  0.15828  1.0000
  Pd  Pd14      1.0  0.16305999999999998  0.5  0.15828  1.0000
  Pd  Pd15      1.0  0.16305999999999998  0.5  0.84172  1.0000
  Pd  Pd16      1.0  0.83694  0.5  0.84172  1.0000
  Pd  Pd17      1.0  0.17351  0.0  0.0  1.0000
  Pd  Pd18      1.0  0.82649  0.0  0.0  1.0000
  Pd  Pd19      1.0  0.17351  0.5  0.5  1.0000
  Pd  Pd20      1.0  0.82649  0.5  0.5  1.0000
  Pd  Pd21      1.0  0.67351  0.0  0.5  1.0000
  Pd  Pd22      1.0  0.32649  0.0  0.5  1.0000
  Pd  Pd23      1.0  0.67351  0.5  0.0  1.0000
  Pd  Pd24      1.0  0.32649  0.5  0.0  1.0000
  Se  Se1       1.0  0.0  0.10753000000000003  0.29996  1.0000
  Se  Se2       1.0  0.0  0.89247  0.29996  1.0000
  Se  Se3       1.0  0.0  0.10753000000000003  0.70004  1.0000
  Se  Se4       1.0  0.0  0.89247  0.70004  1.0000
  Se  Se5       1.0  0.0  0.60753  0.7999599999999999  1.0000
  Se  Se6       1.0  0.0  0.39247  0.7999599999999999  1.0000
  Se  Se7       1.0  0.0  0.60753  0.20003999999999997  1.0000
  Se  Se8       1.0  0.0  0.39247  0.20003999999999997  1.0000
  Se  Se9       1.0  0.5  0.10753000000000003  0.7999599999999999  1.0000
  Se  Se10      1.0  0.5  0.89247  0.7999599999999999  1.0000
  Se  Se11      1.0  0.5  0.10753000000000003  0.20003999999999997  1.0000
  Se  Se12      1.0  0.5  0.89247  0.20003999999999997  1.0000
  Se  Se13      1.0  0.5  0.60753  0.29996  1.0000
  Se  Se14      1.0  0.5  0.39247  0.29996  1.0000
  Se  Se15      1.0  0.5  0.60753  0.70004  1.0000
  Se  Se16      1.0  0.5  0.39247  0.70004  1.0000
  Se  Se17      1.0  0.19159000000000004  0.11  0.09981  1.0000
  Se  Se18      1.0  0.80841  0.89  0.09981  1.0000
  Se  Se19      1.0  0.80841  0.11  0.90019  1.0000
  Se  Se20      1.0  0.19159000000000004  0.89  0.90019  1.0000
  Se  Se21      1.0  0.19159000000000004  0.61  0.59981  1.0000
  Se  Se22      1.0  0.80841  0.39  0.59981  1.0000
  Se  Se23      1.0  0.80841  0.61  0.40019  1.0000
  Se  Se24      1.0  0.19159000000000004  0.39  0.40019  1.0000
  Se  Se25      1.0  0.69159  0.11  0.59981  1.0000
  Se  Se26      1.0  0.30840999999999996  0.89  0.59981  1.0000
  Se  Se27      1.0  0.30840999999999996  0.11  0.40019  1.0000
  Se  Se28      1.0  0.69159  0.89  0.40019  1.0000
  Se  Se29      1.0  0.69159  0.61  0.09981  1.0000
  Se  Se30      1.0  0.30840999999999996  0.39  0.09981  1.0000
  Se  Se31      1.0  0.30840999999999996  0.61  0.90019  1.0000
  Se  Se32      1.0  0.69159  0.39  0.90019  1.0000
  Se  Se33      1.0  0.80841  0.89  0.90019  1.0000
  Se  Se34      1.0  0.19159000000000004  0.11  0.90019  1.0000
  Se  Se35      1.0  0.19159000000000004  0.89  0.09981  1.0000
  Se  Se36      1.0  0.80841  0.11  0.09981  1.0000
  Se  Se37      1.0  0.80841  0.39  0.40019  1.0000
  Se  Se38      1.0  0.19159000000000004  0.61  0.40019  1.0000
  Se  Se39      1.0  0.19159000000000004  0.39  0.59981  1.0000
  Se  Se40      1.0  0.80841  0.61  0.59981  1.0000
  Se  Se41      1.0  0.30840999999999996  0.89  0.40019  1.0000
  Se  Se42      1.0  0.69159  0.11  0.40019  1.0000
  Se  Se43      1.0  0.69159  0.89  0.59981  1.0000
  Se  Se44      1.0  0.30840999999999996  0.11  0.59981  1.0000
  Se  Se45      1.0  0.30840999999999996  0.39  0.90019  1.0000
  Se  Se46      1.0  0.69159  0.61  0.90019  1.0000
  Se  Se47      1.0  0.69159  0.39  0.09981  1.0000
  Se  Se48      1.0  0.30840999999999996  0.61  0.09981  1.0000
