data_image0
_chemical_formula_structural       Fe8Si4O16
_chemical_formula_sum              "Fe8 Si4 O16"
_cell_length_a       4.8195
_cell_length_b       10.4788
_cell_length_c       6.0873
_cell_angle_alpha    90.0
_cell_angle_beta     90.0
_cell_angle_gamma    90.0

_space_group_name_H-M_alt    "P 1"
_space_group_IT_number       1

loop_
  _space_group_symop_operation_xyz
  'x, y, z'

loop_
  _atom_site_type_symbol
  _atom_site_label
  _atom_site_symmetry_multiplicity
  _atom_site_fract_x
  _atom_site_fract_y
  _atom_site_fract_z
  _atom_site_occupancy
  Fe  Fe1       1.0  0.0  0.0  0.0  1.0000
  Fe  Fe2       1.0  0.5  0.5  0.5  1.0000
  Fe  Fe3       1.0  0.0  0.0  0.5  1.0000
  Fe  Fe4       1.0  0.5  0.5  0.0  1.0000
  Fe  Fe5       1.0  0.9859800000000002  0.28026  0.25  1.0000
  Fe  Fe6       1.0  0.5140199999999999  0.78026  0.25  1.0000
  Fe  Fe7       1.0  0.014019999999999923  0.71974  0.7500000000000001  1.0000
  Fe  Fe8       1.0  0.48598000000000013  0.21974000000000002  0.7500000000000001  1.0000
  Si  Si1       1.0  0.43122000000000005  0.09765000000000003  0.25  1.0000
  Si  Si2       1.0  0.06877999999999995  0.59765  0.25  1.0000
  Si  Si3       1.0  0.5687800000000001  0.90235  0.7500000000000001  1.0000
  Si  Si4       1.0  0.9312200000000002  0.40235000000000004  0.7500000000000001  1.0000
  O   O1        1.0  0.76814  0.09217  0.25  1.0000
  O   O2        1.0  0.7318600000000001  0.59217  0.25  1.0000
  O   O3        1.0  0.23185999999999996  0.9078300000000001  0.7500000000000001  1.0000
  O   O4        1.0  0.2681400000000001  0.4078300000000001  0.7500000000000001  1.0000
  O   O5        1.0  0.20895  0.45365000000000005  0.25  1.0000
  O   O6        1.0  0.2910500000000001  0.9536500000000001  0.25  1.0000
  O   O7        1.0  0.79105  0.5463499999999999  0.7500000000000001  1.0000
  O   O8        1.0  0.7089500000000001  0.04634999999999995  0.7500000000000001  1.0000
  O   O9        1.0  0.28897000000000006  0.16563000000000003  0.03643  1.0000
  O   O10       1.0  0.21102999999999994  0.66563  0.46357  1.0000
  O   O11       1.0  0.7110299999999999  0.83437  0.53643  1.0000
  O   O12       1.0  0.7889700000000001  0.33436999999999995  0.9635700000000001  1.0000
  O   O13       1.0  0.7110299999999999  0.83437  0.9635700000000001  1.0000
  O   O14       1.0  0.7889700000000001  0.33436999999999995  0.53643  1.0000
  O   O15       1.0  0.28897000000000006  0.16563000000000003  0.46357  1.0000
  O   O16       1.0  0.21102999999999994  0.66563  0.03643  1.0000
