data_image0
_chemical_formula_structural       BaAlGeH
_chemical_formula_sum              "Ba1 Al1 Ge1 H1"
_cell_length_a       4.34484
_cell_length_b       4.344839999999999
_cell_length_c       5.21606
_cell_angle_alpha    90.0
_cell_angle_beta     90.0
_cell_angle_gamma    119.99999999999999

_space_group_name_H-M_alt    "P 1"
_space_group_IT_number       1

loop_
  _space_group_symop_operation_xyz
  'x, y, z'

loop_
  _atom_site_type_symbol
  _atom_site_label
  _atom_site_symmetry_multiplicity
  _atom_site_fract_x
  _atom_site_fract_y
  _atom_site_fract_z
  _atom_site_occupancy
  Ba  Ba1       1.0  0.0  0.0  0.0  1.0000
  Al  Al1       1.0  0.66667  0.33333  0.5395  1.0000
  Ge  Ge1       1.0  0.33333  0.66667  0.4551  1.0000
  H   H1        1.0  0.66667  0.33333  0.8703  1.0000
