data_image0
_chemical_formula_structural       Pd3Cr3As3
_chemical_formula_sum              "Pd3 Cr3 As3"
_cell_length_a       6.51
_cell_length_b       6.51
_cell_length_c       3.685
_cell_angle_alpha    90.0
_cell_angle_beta     90.0
_cell_angle_gamma    119.99999999999999

_space_group_name_H-M_alt    "P 1"
_space_group_IT_number       1

loop_
  _space_group_symop_operation_xyz
  'x, y, z'

loop_
  _atom_site_type_symbol
  _atom_site_label
  _atom_site_symmetry_multiplicity
  _atom_site_fract_x
  _atom_site_fract_y
  _atom_site_fract_z
  _atom_site_occupancy
  Pd  Pd1       1.0  0.26  0.0  0.0  0.7200
  Pd  Pd2       1.0  3.560729113847717e-17  0.26000000000000006  0.0  0.7200
  Pd  Pd3       1.0  0.7400000000000001  0.74  0.0  0.7200
  Cr  Cr1       1.0  0.595  0.0  0.5  0.7200
  Cr  Cr2       1.0  4.9010121784451214e-17  0.5950000000000001  0.5  0.7200
  Cr  Cr3       1.0  0.405  0.405  0.5  0.7200
  As  As1       1.0  0.0  0.0  0.5  1.0000
  As  As2       1.0  0.33330000000000004  0.6667000000000001  0.0  1.0000
  As  As3       1.0  0.6667000000000001  0.3333000000000001  0.0  1.0000
  Cr  Cr4       1.0  0.26  0.0  0.0  0.2800
  Cr  Cr5       1.0  3.560729113847717e-17  0.26000000000000006  0.0  0.2800
  Cr  Cr6       1.0  0.7400000000000001  0.74  0.0  0.2800
  Pd  Pd4       1.0  0.595  0.0  0.5  0.2800
  Pd  Pd5       1.0  4.9010121784451214e-17  0.5950000000000001  0.5  0.2800
  Pd  Pd6       1.0  0.405  0.405  0.5  0.2800
