data_image0
_chemical_formula_structural       Sb2F12N2F4
_chemical_formula_sum              "Sb2 F16 N2"
_cell_length_a       6.8824
_cell_length_b       7.5308
_cell_length_c       5.5695
_cell_angle_alpha    90.0
_cell_angle_beta     90.0
_cell_angle_gamma    90.0

_space_group_name_H-M_alt    "P 1"
_space_group_IT_number       1

loop_
  _space_group_symop_operation_xyz
  'x, y, z'

loop_
  _atom_site_type_symbol
  _atom_site_label
  _atom_site_symmetry_multiplicity
  _atom_site_fract_x
  _atom_site_fract_y
  _atom_site_fract_z
  _atom_site_occupancy
  Sb  Sb1       1.0  0.0  0.5  0.0  1.0000
  Sb  Sb2       1.0  0.5  0.0  0.0  1.0000
  F   F1        1.0  0.1901  0.5  0.241  1.0000
  F   F2        1.0  0.8099000000000001  0.5  0.241  1.0000
  F   F3        1.0  0.8099000000000001  0.5  0.7589999999999999  1.0000
  F   F4        1.0  0.1901  0.5  0.7589999999999999  1.0000
  F   F5        1.0  0.6901  0.0  0.241  1.0000
  F   F6        1.0  0.3099  0.0  0.241  1.0000
  F   F7        1.0  0.3099  0.0  0.7589999999999999  1.0000
  F   F8        1.0  0.6901  0.0  0.7589999999999999  1.0000
  F   F9        1.0  0.0  0.2535  0.0  1.0000
  F   F10       1.0  0.0  0.7465  0.0  1.0000
  F   F11       1.0  0.5  0.7535000000000002  0.0  1.0000
  F   F12       1.0  0.5  0.24650000000000002  0.0  1.0000
  N   N1        1.0  0.5  0.5  0.5  1.0000
  N   N2        1.0  0.0  0.0  0.5  1.0000
  F   F13       1.0  0.5  0.6553000000000002  0.5  0.5000
  F   F14       1.0  0.5  0.34469999999999995  0.5  0.5000
  F   F15       1.0  0.0  0.15530000000000002  0.5  0.5000
  F   F16       1.0  0.0  0.8447  0.5  0.5000
  N   N3        1.0  0.5  0.6553000000000002  0.5  0.5000
  N   N4        1.0  0.5  0.34469999999999995  0.5  0.5000
  N   N5        1.0  0.0  0.15530000000000002  0.5  0.5000
  N   N6        1.0  0.0  0.8447  0.5  0.5000
