data_image0
_chemical_formula_structural       Bi16Ag72O48
_chemical_formula_sum              "Bi16 Ag72 O48"
_cell_length_a       10.63
_cell_length_b       14.229
_cell_length_c       23.91
_cell_angle_alpha    90.0
_cell_angle_beta     90.0
_cell_angle_gamma    90.0

_space_group_name_H-M_alt    "P 1"
_space_group_IT_number       1

loop_
  _space_group_symop_operation_xyz
  'x, y, z'

loop_
  _atom_site_type_symbol
  _atom_site_label
  _atom_site_symmetry_multiplicity
  _atom_site_fract_x
  _atom_site_fract_y
  _atom_site_fract_z
  _atom_site_occupancy
  Bi  Bi1       1.0  0.18925  0.87282  0.12334  1.0000
  Bi  Bi2       1.0  0.18925  0.12717999999999996  0.87666  1.0000
  Bi  Bi3       1.0  0.18925  0.87282  0.37666  1.0000
  Bi  Bi4       1.0  0.18925  0.12717999999999996  0.62334  1.0000
  Bi  Bi5       1.0  0.81075  0.12717999999999996  0.87666  1.0000
  Bi  Bi6       1.0  0.81075  0.87282  0.12334  1.0000
  Bi  Bi7       1.0  0.81075  0.12717999999999996  0.62334  1.0000
  Bi  Bi8       1.0  0.81075  0.87282  0.37666  1.0000
  Bi  Bi9       1.0  0.68925  0.37281999999999993  0.12334  1.0000
  Bi  Bi10      1.0  0.68925  0.62718  0.87666  1.0000
  Bi  Bi11      1.0  0.68925  0.37281999999999993  0.37666  1.0000
  Bi  Bi12      1.0  0.68925  0.62718  0.62334  1.0000
  Bi  Bi13      1.0  0.31074999999999997  0.62718  0.87666  1.0000
  Bi  Bi14      1.0  0.31074999999999997  0.37281999999999993  0.12334  1.0000
  Bi  Bi15      1.0  0.31074999999999997  0.62718  0.62334  1.0000
  Bi  Bi16      1.0  0.31074999999999997  0.37281999999999993  0.37666  1.0000
  Ag  Ag1       1.0  0.2602  0.6209  0.1519  1.0000
  Ag  Ag2       1.0  0.2602  0.3791  0.8481  1.0000
  Ag  Ag3       1.0  0.2602  0.6209  0.34809999999999997  1.0000
  Ag  Ag4       1.0  0.2602  0.3791  0.6519  1.0000
  Ag  Ag5       1.0  0.7398  0.3791  0.8481  1.0000
  Ag  Ag6       1.0  0.7398  0.6209  0.1519  1.0000
  Ag  Ag7       1.0  0.7398  0.3791  0.6519  1.0000
  Ag  Ag8       1.0  0.7398  0.6209  0.34809999999999997  1.0000
  Ag  Ag9       1.0  0.7602  0.12090000000000001  0.1519  1.0000
  Ag  Ag10      1.0  0.7602  0.8791000000000001  0.8481  1.0000
  Ag  Ag11      1.0  0.7602  0.12090000000000001  0.34809999999999997  1.0000
  Ag  Ag12      1.0  0.7602  0.8791000000000001  0.6519  1.0000
  Ag  Ag13      1.0  0.23980000000000004  0.8791000000000001  0.8481  1.0000
  Ag  Ag14      1.0  0.23980000000000004  0.12090000000000001  0.1519  1.0000
  Ag  Ag15      1.0  0.23980000000000004  0.8791000000000001  0.6519  1.0000
  Ag  Ag16      1.0  0.23980000000000004  0.12090000000000001  0.34809999999999997  1.0000
  Ag  Ag17      1.0  0.19340000000000002  0.4721  0.25  1.0000
  Ag  Ag18      1.0  0.19340000000000002  0.5279  0.75  1.0000
  Ag  Ag19      1.0  0.8066000000000001  0.5279  0.75  1.0000
  Ag  Ag20      1.0  0.8066000000000001  0.4721  0.25  1.0000
  Ag  Ag21      1.0  0.6934  0.9721  0.25  1.0000
  Ag  Ag22      1.0  0.6934  0.02789999999999998  0.75  1.0000
  Ag  Ag23      1.0  0.30660000000000004  0.02789999999999998  0.75  1.0000
  Ag  Ag24      1.0  0.30660000000000004  0.9721  0.25  1.0000
  Ag  Ag25      1.0  0.0  0.4794000000000001  0.15291  1.0000
  Ag  Ag26      1.0  0.0  0.5206  0.84709  1.0000
  Ag  Ag27      1.0  0.0  0.4794000000000001  0.34709  1.0000
  Ag  Ag28      1.0  0.0  0.5206  0.65291  1.0000
  Ag  Ag29      1.0  0.5  0.9794  0.15291  1.0000
  Ag  Ag30      1.0  0.5  0.02059999999999995  0.84709  1.0000
  Ag  Ag31      1.0  0.5  0.9794  0.34709  1.0000
  Ag  Ag32      1.0  0.5  0.02059999999999995  0.65291  1.0000
  Ag  Ag33      1.0  0.20790000000000003  0.2692  0.25  1.0000
  Ag  Ag34      1.0  0.20790000000000003  0.7308000000000001  0.75  1.0000
  Ag  Ag35      1.0  0.7921  0.7308000000000001  0.75  1.0000
  Ag  Ag36      1.0  0.7921  0.2692  0.25  1.0000
  Ag  Ag37      1.0  0.7079000000000001  0.7692  0.25  1.0000
  Ag  Ag38      1.0  0.7079000000000001  0.2308  0.75  1.0000
  Ag  Ag39      1.0  0.2921  0.2308  0.75  1.0000
  Ag  Ag40      1.0  0.2921  0.7692  0.25  1.0000
  Ag  Ag41      1.0  0.0  0.2708  0.15862  1.0000
  Ag  Ag42      1.0  0.0  0.7292000000000001  0.84138  1.0000
  Ag  Ag43      1.0  0.0  0.2708  0.34138  1.0000
  Ag  Ag44      1.0  0.0  0.7292000000000001  0.65862  1.0000
  Ag  Ag45      1.0  0.5  0.7707999999999999  0.15862  1.0000
  Ag  Ag46      1.0  0.5  0.22920000000000004  0.84138  1.0000
  Ag  Ag47      1.0  0.5  0.7707999999999999  0.34138  1.0000
  Ag  Ag48      1.0  0.5  0.22920000000000004  0.65862  1.0000
  Ag  Ag49      1.0  0.0  0.3635  0.05124000000000001  1.0000
  Ag  Ag50      1.0  0.0  0.6365000000000001  0.94876  1.0000
  Ag  Ag51      1.0  0.0  0.3635  0.44876  1.0000
  Ag  Ag52      1.0  0.0  0.6365000000000001  0.55124  1.0000
  Ag  Ag53      1.0  0.5  0.8634999999999999  0.05124000000000001  1.0000
  Ag  Ag54      1.0  0.5  0.1365  0.94876  1.0000
  Ag  Ag55      1.0  0.5  0.8634999999999999  0.44876  1.0000
  Ag  Ag56      1.0  0.5  0.1365  0.55124  1.0000
  Ag  Ag57      1.0  0.2797  0.0  0.0  1.0000
  Ag  Ag58      1.0  0.2797  0.0  0.5  1.0000
  Ag  Ag59      1.0  0.7202999999999999  0.0  0.0  1.0000
  Ag  Ag60      1.0  0.7202999999999999  0.0  0.5  1.0000
  Ag  Ag61      1.0  0.7797000000000001  0.5  0.0  1.0000
  Ag  Ag62      1.0  0.7797000000000001  0.5  0.5  1.0000
  Ag  Ag63      1.0  0.22030000000000002  0.5  0.0  1.0000
  Ag  Ag64      1.0  0.22030000000000002  0.5  0.5  1.0000
  Ag  Ag65      1.0  0.25  0.25  0.0  1.0000
  Ag  Ag66      1.0  0.25  0.75  0.0  1.0000
  Ag  Ag67      1.0  0.25  0.25  0.5  1.0000
  Ag  Ag68      1.0  0.25  0.75  0.5  1.0000
  Ag  Ag69      1.0  0.75  0.75  0.0  1.0000
  Ag  Ag70      1.0  0.75  0.25  0.0  1.0000
  Ag  Ag71      1.0  0.75  0.75  0.5  1.0000
  Ag  Ag72      1.0  0.75  0.25  0.5  1.0000
  O   O1        1.0  0.198  0.272  0.1623  1.0000
  O   O2        1.0  0.198  0.728  0.8376999999999999  1.0000
  O   O3        1.0  0.198  0.272  0.3377  1.0000
  O   O4        1.0  0.198  0.728  0.6623  1.0000
  O   O5        1.0  0.802  0.728  0.8376999999999999  1.0000
  O   O6        1.0  0.802  0.272  0.1623  1.0000
  O   O7        1.0  0.802  0.728  0.6623  1.0000
  O   O8        1.0  0.802  0.272  0.3377  1.0000
  O   O9        1.0  0.698  0.772  0.1623  1.0000
  O   O10       1.0  0.698  0.22799999999999998  0.8376999999999999  1.0000
  O   O11       1.0  0.698  0.772  0.3377  1.0000
  O   O12       1.0  0.698  0.22799999999999998  0.6623  1.0000
  O   O13       1.0  0.30200000000000005  0.22799999999999998  0.8376999999999999  1.0000
  O   O14       1.0  0.30200000000000005  0.772  0.1623  1.0000
  O   O15       1.0  0.30200000000000005  0.22799999999999998  0.6623  1.0000
  O   O16       1.0  0.30200000000000005  0.772  0.3377  1.0000
  O   O17       1.0  0.19900000000000004  0.37300000000000005  0.05109999999999999  1.0000
  O   O18       1.0  0.19900000000000004  0.627  0.9489  1.0000
  O   O19       1.0  0.19900000000000004  0.37300000000000005  0.4489  1.0000
  O   O20       1.0  0.19900000000000004  0.627  0.5511  1.0000
  O   O21       1.0  0.801  0.627  0.9489  1.0000
  O   O22       1.0  0.801  0.37300000000000005  0.05109999999999999  1.0000
  O   O23       1.0  0.801  0.627  0.5511  1.0000
  O   O24       1.0  0.801  0.37300000000000005  0.4489  1.0000
  O   O25       1.0  0.6990000000000001  0.873  0.05109999999999999  1.0000
  O   O26       1.0  0.6990000000000001  0.12699999999999995  0.9489  1.0000
  O   O27       1.0  0.6990000000000001  0.873  0.4489  1.0000
  O   O28       1.0  0.6990000000000001  0.12699999999999995  0.5511  1.0000
  O   O29       1.0  0.30099999999999993  0.12699999999999995  0.9489  1.0000
  O   O30       1.0  0.30099999999999993  0.873  0.05109999999999999  1.0000
  O   O31       1.0  0.30099999999999993  0.12699999999999995  0.5511  1.0000
  O   O32       1.0  0.30099999999999993  0.873  0.4489  1.0000
  O   O33       1.0  0.19900000000000004  0.4770000000000001  0.1603  1.0000
  O   O34       1.0  0.19900000000000004  0.5229999999999999  0.8397  1.0000
  O   O35       1.0  0.19900000000000004  0.4770000000000001  0.3397  1.0000
  O   O36       1.0  0.19900000000000004  0.5229999999999999  0.6603  1.0000
  O   O37       1.0  0.801  0.5229999999999999  0.8397  1.0000
  O   O38       1.0  0.801  0.4770000000000001  0.1603  1.0000
  O   O39       1.0  0.801  0.5229999999999999  0.6603  1.0000
  O   O40       1.0  0.801  0.4770000000000001  0.3397  1.0000
  O   O41       1.0  0.6990000000000001  0.9770000000000001  0.1603  1.0000
  O   O42       1.0  0.6990000000000001  0.022999999999999965  0.8397  1.0000
  O   O43       1.0  0.6990000000000001  0.9770000000000001  0.3397  1.0000
  O   O44       1.0  0.6990000000000001  0.022999999999999965  0.6603  1.0000
  O   O45       1.0  0.30099999999999993  0.022999999999999965  0.8397  1.0000
  O   O46       1.0  0.30099999999999993  0.9770000000000001  0.1603  1.0000
  O   O47       1.0  0.30099999999999993  0.022999999999999965  0.6603  1.0000
  O   O48       1.0  0.30099999999999993  0.9770000000000001  0.3397  1.0000
