data_image0
_chemical_formula_structural       Si3Li3O6
_chemical_formula_sum              "Si3 Li3 O6"
_cell_length_a       5.2654
_cell_length_b       5.2654
_cell_length_c       5.624
_cell_angle_alpha    90.0
_cell_angle_beta     90.0
_cell_angle_gamma    119.99999999999999

_space_group_name_H-M_alt    "P 1"
_space_group_IT_number       1

loop_
  _space_group_symop_operation_xyz
  'x, y, z'

loop_
  _atom_site_type_symbol
  _atom_site_label
  _atom_site_symmetry_multiplicity
  _atom_site_fract_x
  _atom_site_fract_y
  _atom_site_fract_z
  _atom_site_occupancy
  Si  Si1       1.0  0.5  0.5  0.33330000000000004  0.5200
  Si  Si2       1.0  0.5  0.0  0.9999666666666668  0.5200
  Si  Si3       1.0  0.0  0.5  0.6667  0.5200
  Li  Li1       1.0  0.0  0.0  0.0  0.4800
  Li  Li2       1.0  0.0  0.0  0.6666666666666666  0.4800
  Li  Li3       1.0  0.0  0.0  0.3333333333333333  0.4800
  O   O1        1.0  0.20088  0.79912  0.8333  1.0000
  O   O2        1.0  0.79912  0.20087999999999995  0.8333  1.0000
  O   O3        1.0  0.20087999999999995  0.4017599999999999  0.4999666666666667  1.0000
  O   O4        1.0  0.79912  0.5982400000000001  0.4999666666666667  1.0000
  O   O5        1.0  0.4017599999999999  0.20087999999999995  0.16669999999999996  1.0000
  O   O6        1.0  0.5982400000000001  0.79912  0.16669999999999996  1.0000
  Al  Al1       1.0  0.5  0.5  0.33330000000000004  0.4800
  Al  Al2       1.0  0.5  0.0  0.9999666666666668  0.4800
  Al  Al3       1.0  0.0  0.5  0.6667  0.4800
