data_image0
_chemical_formula_structural       Cs12Cu80Te52
_chemical_formula_sum              "Cs12 Cu80 Te52"
_cell_length_a       14.7557
_cell_length_b       14.7557
_cell_length_c       14.7557
_cell_angle_alpha    90.0
_cell_angle_beta     90.0
_cell_angle_gamma    90.0

_space_group_name_H-M_alt    "P 1"
_space_group_IT_number       1

loop_
  _space_group_symop_operation_xyz
  'x, y, z'

loop_
  _atom_site_type_symbol
  _atom_site_label
  _atom_site_symmetry_multiplicity
  _atom_site_fract_x
  _atom_site_fract_y
  _atom_site_fract_z
  _atom_site_occupancy
  Cs  Cs1       1.0  0.25  0.25  0.75  1.0000
  Cs  Cs2       1.0  0.75  0.75  0.75  1.0000
  Cs  Cs3       1.0  0.75  0.25  0.25  1.0000
  Cs  Cs4       1.0  0.25  0.75  0.25  1.0000
  Cs  Cs5       1.0  0.75  0.75  0.25  1.0000
  Cs  Cs6       1.0  0.25  0.25  0.25  1.0000
  Cs  Cs7       1.0  0.25  0.75  0.75  1.0000
  Cs  Cs8       1.0  0.75  0.25  0.75  1.0000
  Cs  Cs9       1.0  0.0  0.5  0.0  1.0000
  Cs  Cs10      1.0  0.0  0.0  0.5  1.0000
  Cs  Cs11      1.0  0.5  0.0  0.0  1.0000
  Cs  Cs12      1.0  0.5  0.5  0.5  1.0000
  Cu  Cu1       1.0  0.10311  0.10311  0.10311  1.0000
  Cu  Cu2       1.0  0.89689  0.89689  0.10311  1.0000
  Cu  Cu3       1.0  0.89689  0.10311  0.89689  1.0000
  Cu  Cu4       1.0  0.10311  0.89689  0.89689  1.0000
  Cu  Cu5       1.0  0.10311  0.6031100000000001  0.6031100000000001  1.0000
  Cu  Cu6       1.0  0.89689  0.39689  0.6031100000000001  1.0000
  Cu  Cu7       1.0  0.89689  0.6031100000000001  0.39689  1.0000
  Cu  Cu8       1.0  0.10311  0.39689  0.39689  1.0000
  Cu  Cu9       1.0  0.6031100000000001  0.10311  0.6031100000000001  1.0000
  Cu  Cu10      1.0  0.39689  0.89689  0.6031100000000001  1.0000
  Cu  Cu11      1.0  0.39689  0.10311  0.39689  1.0000
  Cu  Cu12      1.0  0.6031100000000001  0.89689  0.39689  1.0000
  Cu  Cu13      1.0  0.6031100000000001  0.6031100000000001  0.10311  1.0000
  Cu  Cu14      1.0  0.39689  0.39689  0.10311  1.0000
  Cu  Cu15      1.0  0.39689  0.6031100000000001  0.89689  1.0000
  Cu  Cu16      1.0  0.6031100000000001  0.39689  0.89689  1.0000
  Cu  Cu17      1.0  0.89689  0.89689  0.89689  1.0000
  Cu  Cu18      1.0  0.10311  0.10311  0.89689  1.0000
  Cu  Cu19      1.0  0.10311  0.89689  0.10311  1.0000
  Cu  Cu20      1.0  0.89689  0.10311  0.10311  1.0000
  Cu  Cu21      1.0  0.89689  0.39689  0.39689  1.0000
  Cu  Cu22      1.0  0.10311  0.6031100000000001  0.39689  1.0000
  Cu  Cu23      1.0  0.10311  0.39689  0.6031100000000001  1.0000
  Cu  Cu24      1.0  0.89689  0.6031100000000001  0.6031100000000001  1.0000
  Cu  Cu25      1.0  0.39689  0.89689  0.39689  1.0000
  Cu  Cu26      1.0  0.6031100000000001  0.10311  0.39689  1.0000
  Cu  Cu27      1.0  0.6031100000000001  0.89689  0.6031100000000001  1.0000
  Cu  Cu28      1.0  0.39689  0.10311  0.6031100000000001  1.0000
  Cu  Cu29      1.0  0.39689  0.39689  0.89689  1.0000
  Cu  Cu30      1.0  0.6031100000000001  0.6031100000000001  0.89689  1.0000
  Cu  Cu31      1.0  0.6031100000000001  0.39689  0.10311  1.0000
  Cu  Cu32      1.0  0.39689  0.6031100000000001  0.10311  1.0000
  Cu  Cu33      1.0  0.0  0.24695  0.12615  1.0000
  Cu  Cu34      1.0  0.0  0.75305  0.12615  1.0000
  Cu  Cu35      1.0  0.0  0.24695  0.87385  1.0000
  Cu  Cu36      1.0  0.0  0.75305  0.87385  1.0000
  Cu  Cu37      1.0  0.12615  0.0  0.24695  1.0000
  Cu  Cu38      1.0  0.12615  0.0  0.75305  1.0000
  Cu  Cu39      1.0  0.87385  0.0  0.24695  1.0000
  Cu  Cu40      1.0  0.87385  0.0  0.75305  1.0000
  Cu  Cu41      1.0  0.24695  0.12615  0.0  1.0000
  Cu  Cu42      1.0  0.75305  0.12615  0.0  1.0000
  Cu  Cu43      1.0  0.24695  0.87385  0.0  1.0000
  Cu  Cu44      1.0  0.75305  0.87385  0.0  1.0000
  Cu  Cu45      1.0  0.0  0.74695  0.62615  1.0000
  Cu  Cu46      1.0  0.0  0.25305  0.62615  1.0000
  Cu  Cu47      1.0  0.0  0.74695  0.37385  1.0000
  Cu  Cu48      1.0  0.0  0.25305  0.37385  1.0000
  Cu  Cu49      1.0  0.12615  0.5  0.74695  1.0000
  Cu  Cu50      1.0  0.12615  0.5  0.25305  1.0000
  Cu  Cu51      1.0  0.87385  0.5  0.74695  1.0000
  Cu  Cu52      1.0  0.87385  0.5  0.25305  1.0000
  Cu  Cu53      1.0  0.24695  0.62615  0.5  1.0000
  Cu  Cu54      1.0  0.75305  0.62615  0.5  1.0000
  Cu  Cu55      1.0  0.24695  0.37385  0.5  1.0000
  Cu  Cu56      1.0  0.75305  0.37385  0.5  1.0000
  Cu  Cu57      1.0  0.5  0.24695  0.62615  1.0000
  Cu  Cu58      1.0  0.5  0.75305  0.62615  1.0000
  Cu  Cu59      1.0  0.5  0.24695  0.37385  1.0000
  Cu  Cu60      1.0  0.5  0.75305  0.37385  1.0000
  Cu  Cu61      1.0  0.62615  0.0  0.74695  1.0000
  Cu  Cu62      1.0  0.62615  0.0  0.25305  1.0000
  Cu  Cu63      1.0  0.37385  0.0  0.74695  1.0000
  Cu  Cu64      1.0  0.37385  0.0  0.25305  1.0000
  Cu  Cu65      1.0  0.74695  0.12615  0.5  1.0000
  Cu  Cu66      1.0  0.25305  0.12615  0.5  1.0000
  Cu  Cu67      1.0  0.74695  0.87385  0.5  1.0000
  Cu  Cu68      1.0  0.25305  0.87385  0.5  1.0000
  Cu  Cu69      1.0  0.5  0.74695  0.12615  1.0000
  Cu  Cu70      1.0  0.5  0.25305  0.12615  1.0000
  Cu  Cu71      1.0  0.5  0.74695  0.87385  1.0000
  Cu  Cu72      1.0  0.5  0.25305  0.87385  1.0000
  Cu  Cu73      1.0  0.62615  0.5  0.24695  1.0000
  Cu  Cu74      1.0  0.62615  0.5  0.75305  1.0000
  Cu  Cu75      1.0  0.37385  0.5  0.24695  1.0000
  Cu  Cu76      1.0  0.37385  0.5  0.75305  1.0000
  Cu  Cu77      1.0  0.74695  0.62615  0.0  1.0000
  Cu  Cu78      1.0  0.25305  0.62615  0.0  1.0000
  Cu  Cu79      1.0  0.74695  0.37385  0.0  1.0000
  Cu  Cu80      1.0  0.25305  0.37385  0.0  1.0000
  Te  Te1       1.0  0.12467  0.25451  0.0  1.0000
  Te  Te2       1.0  0.87533  0.74549  0.0  1.0000
  Te  Te3       1.0  0.87533  0.25451  0.0  1.0000
  Te  Te4       1.0  0.12467  0.74549  0.0  1.0000
  Te  Te5       1.0  0.0  0.12467  0.25451  1.0000
  Te  Te6       1.0  0.0  0.87533  0.74549  1.0000
  Te  Te7       1.0  0.0  0.87533  0.25451  1.0000
  Te  Te8       1.0  0.0  0.12467  0.74549  1.0000
  Te  Te9       1.0  0.25451  0.0  0.12467  1.0000
  Te  Te10      1.0  0.74549  0.0  0.87533  1.0000
  Te  Te11      1.0  0.25451  0.0  0.87533  1.0000
  Te  Te12      1.0  0.74549  0.0  0.12467  1.0000
  Te  Te13      1.0  0.12467  0.75451  0.5  1.0000
  Te  Te14      1.0  0.87533  0.24548999999999999  0.5  1.0000
  Te  Te15      1.0  0.87533  0.75451  0.5  1.0000
  Te  Te16      1.0  0.12467  0.24548999999999999  0.5  1.0000
  Te  Te17      1.0  0.0  0.6246700000000001  0.75451  1.0000
  Te  Te18      1.0  0.0  0.37533  0.24548999999999999  1.0000
  Te  Te19      1.0  0.0  0.37533  0.75451  1.0000
  Te  Te20      1.0  0.0  0.6246700000000001  0.24548999999999999  1.0000
  Te  Te21      1.0  0.25451  0.5  0.6246700000000001  1.0000
  Te  Te22      1.0  0.74549  0.5  0.37533  1.0000
  Te  Te23      1.0  0.25451  0.5  0.37533  1.0000
  Te  Te24      1.0  0.74549  0.5  0.6246700000000001  1.0000
  Te  Te25      1.0  0.6246700000000001  0.25451  0.5  1.0000
  Te  Te26      1.0  0.37533  0.74549  0.5  1.0000
  Te  Te27      1.0  0.37533  0.25451  0.5  1.0000
  Te  Te28      1.0  0.6246700000000001  0.74549  0.5  1.0000
  Te  Te29      1.0  0.5  0.12467  0.75451  1.0000
  Te  Te30      1.0  0.5  0.87533  0.24548999999999999  1.0000
  Te  Te31      1.0  0.5  0.87533  0.75451  1.0000
  Te  Te32      1.0  0.5  0.12467  0.24548999999999999  1.0000
  Te  Te33      1.0  0.75451  0.0  0.6246700000000001  1.0000
  Te  Te34      1.0  0.24548999999999999  0.0  0.37533  1.0000
  Te  Te35      1.0  0.75451  0.0  0.37533  1.0000
  Te  Te36      1.0  0.24548999999999999  0.0  0.6246700000000001  1.0000
  Te  Te37      1.0  0.6246700000000001  0.75451  0.0  1.0000
  Te  Te38      1.0  0.37533  0.24548999999999999  0.0  1.0000
  Te  Te39      1.0  0.37533  0.75451  0.0  1.0000
  Te  Te40      1.0  0.6246700000000001  0.24548999999999999  0.0  1.0000
  Te  Te41      1.0  0.5  0.6246700000000001  0.25451  1.0000
  Te  Te42      1.0  0.5  0.37533  0.74549  1.0000
  Te  Te43      1.0  0.5  0.37533  0.25451  1.0000
  Te  Te44      1.0  0.5  0.6246700000000001  0.74549  1.0000
  Te  Te45      1.0  0.75451  0.5  0.12467  1.0000
  Te  Te46      1.0  0.24548999999999999  0.5  0.87533  1.0000
  Te  Te47      1.0  0.75451  0.5  0.87533  1.0000
  Te  Te48      1.0  0.24548999999999999  0.5  0.12467  1.0000
  Te  Te49      1.0  0.0  0.0  0.0  1.0000
  Te  Te50      1.0  0.0  0.5  0.5  1.0000
  Te  Te51      1.0  0.5  0.0  0.5  1.0000
  Te  Te52      1.0  0.5  0.5  0.0  1.0000
