data_image0
_chemical_formula_structural       Os6Te16Sc28
_chemical_formula_sum              "Os6 Te16 Sc28"
_cell_length_a       11.4008
_cell_length_b       11.4008
_cell_length_c       9.0745
_cell_angle_alpha    90.0
_cell_angle_beta     90.0
_cell_angle_gamma    90.0

_space_group_name_H-M_alt    "P 1"
_space_group_IT_number       1

loop_
  _space_group_symop_operation_xyz
  'x, y, z'

loop_
  _atom_site_type_symbol
  _atom_site_label
  _atom_site_symmetry_multiplicity
  _atom_site_fract_x
  _atom_site_fract_y
  _atom_site_fract_z
  _atom_site_occupancy
  Os  Os1       1.0  0.0  0.0  0.0  1.0000
  Os  Os2       1.0  0.5  0.5  0.5  1.0000
  Os  Os3       1.0  0.0  0.0  0.33857  1.0000
  Os  Os4       1.0  0.5  0.5  0.16143000000000002  1.0000
  Os  Os5       1.0  0.0  0.0  0.66143  1.0000
  Os  Os6       1.0  0.5  0.5  0.8385700000000001  1.0000
  Te  Te1       1.0  0.14124  0.3948400000000001  0.0  1.0000
  Te  Te2       1.0  0.85876  0.6051599999999999  0.0  1.0000
  Te  Te3       1.0  0.6051599999999999  0.14124  0.0  1.0000
  Te  Te4       1.0  0.3948400000000001  0.85876  0.0  1.0000
  Te  Te5       1.0  0.35875999999999997  0.8948400000000001  0.5  1.0000
  Te  Te6       1.0  0.64124  0.10515999999999992  0.5  1.0000
  Te  Te7       1.0  0.8948400000000001  0.64124  0.5  1.0000
  Te  Te8       1.0  0.10515999999999992  0.35875999999999997  0.5  1.0000
  Te  Te9       1.0  0.32369  0.17631  0.25  1.0000
  Te  Te10      1.0  0.67631  0.82369  0.25  1.0000
  Te  Te11      1.0  0.82369  0.32369  0.25  1.0000
  Te  Te12      1.0  0.17631  0.67631  0.25  1.0000
  Te  Te13      1.0  0.67631  0.82369  0.75  1.0000
  Te  Te14      1.0  0.32369  0.17631  0.75  1.0000
  Te  Te15      1.0  0.17631  0.67631  0.75  1.0000
  Te  Te16      1.0  0.82369  0.32369  0.75  1.0000
  Sc  Sc1       1.0  0.05913  0.18858  0.17907  1.0000
  Sc  Sc2       1.0  0.9408699999999999  0.8114200000000001  0.17907  1.0000
  Sc  Sc3       1.0  0.8114200000000001  0.05913  0.17907  1.0000
  Sc  Sc4       1.0  0.18858  0.9408699999999999  0.17907  1.0000
  Sc  Sc5       1.0  0.44087  0.68858  0.32093  1.0000
  Sc  Sc6       1.0  0.55913  0.31142000000000003  0.32093  1.0000
  Sc  Sc7       1.0  0.68858  0.55913  0.32093  1.0000
  Sc  Sc8       1.0  0.31142000000000003  0.44087  0.32093  1.0000
  Sc  Sc9       1.0  0.9408699999999999  0.8114200000000001  0.8209299999999999  1.0000
  Sc  Sc10      1.0  0.05913  0.18858  0.8209299999999999  1.0000
  Sc  Sc11      1.0  0.18858  0.9408699999999999  0.8209299999999999  1.0000
  Sc  Sc12      1.0  0.8114200000000001  0.05913  0.8209299999999999  1.0000
  Sc  Sc13      1.0  0.55913  0.31142000000000003  0.6790700000000001  1.0000
  Sc  Sc14      1.0  0.44087  0.68858  0.6790700000000001  1.0000
  Sc  Sc15      1.0  0.31142000000000003  0.44087  0.6790700000000001  1.0000
  Sc  Sc16      1.0  0.68858  0.55913  0.6790700000000001  1.0000
  Sc  Sc17      1.0  0.17671999999999996  0.09606  0.5  1.0000
  Sc  Sc18      1.0  0.8232800000000001  0.90394  0.5  1.0000
  Sc  Sc19      1.0  0.90394  0.17671999999999996  0.5  1.0000
  Sc  Sc20      1.0  0.09606  0.8232800000000001  0.5  1.0000
  Sc  Sc21      1.0  0.32328  0.59606  0.0  1.0000
  Sc  Sc22      1.0  0.67672  0.4039399999999999  0.0  1.0000
  Sc  Sc23      1.0  0.59606  0.67672  0.0  1.0000
  Sc  Sc24      1.0  0.4039399999999999  0.32328  0.0  1.0000
  Sc  Sc25      1.0  0.0  0.5  0.25  0.9130
  Sc  Sc26      1.0  0.5  0.0  0.25  0.9130
  Sc  Sc27      1.0  0.0  0.5  0.75  0.9130
  Sc  Sc28      1.0  0.5  0.0  0.75  0.9130
