data_image0
_chemical_formula_structural       Sr8Al24O44
_chemical_formula_sum              "Sr8 Al24 O44"
_cell_length_a       22.0299
_cell_length_b       4.8802
_cell_length_c       8.3995
_cell_angle_alpha    90.0
_cell_angle_beta     90.0
_cell_angle_gamma    90.0

_space_group_name_H-M_alt    "P 1"
_space_group_IT_number       1

loop_
  _space_group_symop_operation_xyz
  'x, y, z'

loop_
  _atom_site_type_symbol
  _atom_site_label
  _atom_site_symmetry_multiplicity
  _atom_site_fract_x
  _atom_site_fract_y
  _atom_site_fract_z
  _atom_site_occupancy
  Sr  Sr1       1.0  0.3647949999999999  0.12254  0.0  0.7560
  Sr  Sr2       1.0  0.635205  0.87746  0.0  0.7560
  Sr  Sr3       1.0  0.13520500000000008  0.6225399999999999  0.5  0.7560
  Sr  Sr4       1.0  0.864795  0.37745999999999996  0.5  0.7560
  Sr  Sr5       1.0  0.155369  0.5462  0.0  0.8968
  Sr  Sr6       1.0  0.844631  0.4537999999999999  0.0  0.8968
  Sr  Sr7       1.0  0.344631  0.04620000000000001  0.5  0.8968
  Sr  Sr8       1.0  0.655369  0.9537999999999999  0.5  0.8968
  Al  Al1       1.0  0.0  0.0  0.5  1.0000
  Al  Al2       1.0  0.5  0.49999999999999994  0.0  1.0000
  Al  Al3       1.0  0.0  0.4999999999999999  0.0  1.0000
  Al  Al4       1.0  0.5  0.0  0.5  1.0000
  Al  Al5       1.0  0.0  0.4999999999999999  0.66773  1.0000
  Al  Al6       1.0  0.5  0.0  0.83227  1.0000
  Al  Al7       1.0  0.0  0.49999999999999994  0.33226999999999995  1.0000
  Al  Al8       1.0  0.5  5.551115123125782e-17  0.16773000000000016  1.0000
  Al  Al9       1.0  0.21348  0.11886  0.29528  1.0000
  Al  Al10      1.0  0.7865199999999999  0.88114  0.29528  1.0000
  Al  Al11      1.0  0.28652  0.61886  0.20472  1.0000
  Al  Al12      1.0  0.71348  0.38114000000000003  0.20472  1.0000
  Al  Al13      1.0  0.7865199999999999  0.88114  0.70472  1.0000
  Al  Al14      1.0  0.21348  0.11886  0.70472  1.0000
  Al  Al15      1.0  0.71348  0.38114000000000003  0.79528  1.0000
  Al  Al16      1.0  0.28652  0.61886  0.79528  1.0000
  Al  Al17      1.0  0.0746  0.008779999999999998  0.17903  1.0000
  Al  Al18      1.0  0.9254  0.99122  0.17903  1.0000
  Al  Al19      1.0  0.42539999999999994  0.50878  0.32097  1.0000
  Al  Al20      1.0  0.5746  0.49121999999999993  0.32097  1.0000
  Al  Al21      1.0  0.9254  0.99122  0.82097  1.0000
  Al  Al22      1.0  0.0746  0.008779999999999998  0.82097  1.0000
  Al  Al23      1.0  0.5746  0.49121999999999993  0.67903  1.0000
  Al  Al24      1.0  0.42539999999999994  0.50878  0.67903  1.0000
  O   O1        1.0  0.056049999999999996  0.8270999999999998  0.0  1.0000
  O   O2        1.0  0.9439499999999998  0.17290000000000014  0.0  1.0000
  O   O3        1.0  0.44394999999999996  0.32709999999999967  0.5  1.0000
  O   O4        1.0  0.55605  0.6729000000000002  0.5  1.0000
  O   O5        1.0  0.29866  0.5677  0.0  1.0000
  O   O6        1.0  0.7013400000000001  0.43229999999999996  0.0  1.0000
  O   O7        1.0  0.20134  0.06769999999999986  0.5  1.0000
  O   O8        1.0  0.7986599999999998  0.9323  0.5  1.0000
  O   O9        1.0  0.45181  0.3229999999999999  0.84219  1.0000
  O   O10       1.0  0.54819  0.677  0.84219  1.0000
  O   O11       1.0  0.04819000000000001  0.823  0.65781  1.0000
  O   O12       1.0  0.95181  0.17700000000000005  0.65781  1.0000
  O   O13       1.0  0.54819  0.677  0.15781  1.0000
  O   O14       1.0  0.45181  0.3229999999999999  0.15781  1.0000
  O   O15       1.0  0.95181  0.17700000000000005  0.34219  1.0000
  O   O16       1.0  0.04819000000000001  0.823  0.34219  1.0000
  O   O17       1.0  0.34669  0.496  0.31766  1.0000
  O   O18       1.0  0.6533100000000001  0.504  0.31766  1.0000
  O   O19       1.0  0.15331  0.9959999999999999  0.18234  1.0000
  O   O20       1.0  0.8466899999999998  0.0040000000000000036  0.18234  1.0000
  O   O21       1.0  0.6533100000000001  0.504  0.68234  1.0000
  O   O22       1.0  0.34669  0.496  0.68234  1.0000
  O   O23       1.0  0.8466899999999998  0.0040000000000000036  0.81766  1.0000
  O   O24       1.0  0.15331  0.9959999999999999  0.81766  1.0000
  O   O25       1.0  0.45552  0.8296999999999999  0.0  1.0000
  O   O26       1.0  0.5444800000000001  0.17030000000000012  0.0  1.0000
  O   O27       1.0  0.04448000000000002  0.3296999999999999  0.5  1.0000
  O   O28       1.0  0.9555199999999999  0.6703  0.5  1.0000
  O   O29       1.0  0.95192  0.6515  0.83661  1.0000
  O   O30       1.0  0.04808000000000001  0.34850000000000003  0.83661  1.0000
  O   O31       1.0  0.54808  0.15149999999999997  0.66339  1.0000
  O   O32       1.0  0.4519199999999999  0.8485  0.66339  1.0000
  O   O33       1.0  0.04808000000000001  0.34850000000000003  0.16339000000000004  1.0000
  O   O34       1.0  0.95192  0.6515  0.16339000000000004  1.0000
  O   O35       1.0  0.4519199999999999  0.8485  0.33660999999999985  1.0000
  O   O36       1.0  0.54808  0.15149999999999997  0.33660999999999985  1.0000
  O   O37       1.0  0.28328  0.9727999999999999  0.24120999999999998  1.0000
  O   O38       1.0  0.71672  0.027200000000000113  0.24120999999999998  1.0000
  O   O39       1.0  0.21672  0.47279999999999983  0.25879  1.0000
  O   O40       1.0  0.78328  0.5272000000000001  0.25879  1.0000
  O   O41       1.0  0.71672  0.027200000000000113  0.7587900000000001  1.0000
  O   O42       1.0  0.28328  0.9727999999999999  0.7587900000000001  1.0000
  O   O43       1.0  0.78328  0.5272000000000001  0.7412099999999999  1.0000
  O   O44       1.0  0.21672  0.47279999999999983  0.7412099999999999  1.0000
  Pb  Pb1       1.0  0.3647949999999999  0.12254  0.0  0.2440
  Pb  Pb2       1.0  0.635205  0.87746  0.0  0.2440
  Pb  Pb3       1.0  0.13520500000000008  0.6225399999999999  0.5  0.2440
  Pb  Pb4       1.0  0.864795  0.37745999999999996  0.5  0.2440
  Pb  Pb5       1.0  0.155369  0.5462  0.0  0.1032
  Pb  Pb6       1.0  0.844631  0.4537999999999999  0.0  0.1032
  Pb  Pb7       1.0  0.344631  0.04620000000000001  0.5  0.1032
  Pb  Pb8       1.0  0.655369  0.9537999999999999  0.5  0.1032
