data_image0
_chemical_formula_structural       Tm4Si4O14
_chemical_formula_sum              "Tm4 Si4 O14"
_cell_length_a       6.8205
_cell_length_b       8.9062
_cell_length_c       4.6937
_cell_angle_alpha    90.0
_cell_angle_beta     101.77999999999999
_cell_angle_gamma    90.0

_space_group_name_H-M_alt    "P 1"
_space_group_IT_number       1

loop_
  _space_group_symop_operation_xyz
  'x, y, z'

loop_
  _atom_site_type_symbol
  _atom_site_label
  _atom_site_symmetry_multiplicity
  _atom_site_fract_x
  _atom_site_fract_y
  _atom_site_fract_z
  _atom_site_occupancy
  Tm  Tm1       1.0  0.5  0.19345  0.5  1.0000
  Tm  Tm2       1.0  0.0  0.69345  0.5  1.0000
  Tm  Tm3       1.0  0.5  0.80655  0.5  1.0000
  Tm  Tm4       1.0  0.0  0.30655  0.5  1.0000
  Si  Si1       1.0  0.21860000000000004  0.0  0.9129999999999999  1.0000
  Si  Si2       1.0  0.7814  0.0  0.08700000000000008  1.0000
  Si  Si3       1.0  0.7186  0.5  0.9129999999999999  1.0000
  Si  Si4       1.0  0.2814  0.5  0.08700000000000008  1.0000
  O   O1        1.0  0.3804  0.0  0.21299999999999997  1.0000
  O   O2        1.0  0.6195999999999999  0.0  0.787  1.0000
  O   O3        1.0  0.8804000000000002  0.5  0.21299999999999997  1.0000
  O   O4        1.0  0.1196  0.5  0.787  1.0000
  O   O5        1.0  0.0  0.0  0.0  1.0000
  O   O6        1.0  0.5  0.5  0.0  1.0000
  O   O7        1.0  0.23570000000000005  0.1505  0.7212999999999999  1.0000
  O   O8        1.0  0.7643  0.1505  0.27870000000000006  1.0000
  O   O9        1.0  0.7357  0.6505  0.7212999999999999  1.0000
  O   O10       1.0  0.2643  0.6505  0.27870000000000006  1.0000
  O   O11       1.0  0.7643  0.8495000000000001  0.27870000000000006  1.0000
  O   O12       1.0  0.23570000000000005  0.8495000000000001  0.7212999999999999  1.0000
  O   O13       1.0  0.2643  0.34950000000000003  0.27870000000000006  1.0000
  O   O14       1.0  0.7357  0.34950000000000003  0.7212999999999999  1.0000
