data_image0
_chemical_formula_structural       I24Cd32As16
_chemical_formula_sum              "I24 Cd32 As16"
_cell_length_a       12.993
_cell_length_b       12.993
_cell_length_c       12.993
_cell_angle_alpha    90.0
_cell_angle_beta     90.0
_cell_angle_gamma    90.0

_space_group_name_H-M_alt    "P 1"
_space_group_IT_number       1

loop_
  _space_group_symop_operation_xyz
  'x, y, z'

loop_
  _atom_site_type_symbol
  _atom_site_label
  _atom_site_symmetry_multiplicity
  _atom_site_fract_x
  _atom_site_fract_y
  _atom_site_fract_z
  _atom_site_occupancy
  I   I1        1.0  0.18619999999999995  0.4368999999999999  0.2567  1.0000
  I   I2        1.0  0.6861999999999998  0.06310000000000004  0.7433000000000001  1.0000
  I   I3        1.0  0.8138  0.9369  0.2433  1.0000
  I   I4        1.0  0.31379999999999997  0.5631  0.7566999999999999  1.0000
  I   I5        1.0  0.4368999999999999  0.2567  0.18619999999999995  1.0000
  I   I6        1.0  0.06310000000000004  0.7433000000000001  0.6861999999999998  1.0000
  I   I7        1.0  0.9369  0.2433  0.8138  1.0000
  I   I8        1.0  0.5631  0.7566999999999999  0.31379999999999997  1.0000
  I   I9        1.0  0.2567  0.18619999999999995  0.4368999999999999  1.0000
  I   I10       1.0  0.7433000000000001  0.6861999999999998  0.06310000000000004  1.0000
  I   I11       1.0  0.2433  0.8138  0.9369  1.0000
  I   I12       1.0  0.7566999999999999  0.31379999999999997  0.5631  1.0000
  I   I13       1.0  0.8138  0.5631  0.7433000000000001  1.0000
  I   I14       1.0  0.31379999999999997  0.9369  0.2567  1.0000
  I   I15       1.0  0.18619999999999995  0.06310000000000004  0.7566999999999999  1.0000
  I   I16       1.0  0.6861999999999998  0.4368999999999999  0.2433  1.0000
  I   I17       1.0  0.5631  0.7433000000000001  0.8138  1.0000
  I   I18       1.0  0.9369  0.2567  0.31379999999999997  1.0000
  I   I19       1.0  0.06310000000000004  0.7566999999999999  0.18619999999999995  1.0000
  I   I20       1.0  0.4368999999999999  0.2433  0.6861999999999998  1.0000
  I   I21       1.0  0.7433000000000001  0.8138  0.5631  1.0000
  I   I22       1.0  0.2567  0.31379999999999997  0.9369  1.0000
  I   I23       1.0  0.7566999999999999  0.18619999999999995  0.06310000000000004  1.0000
  I   I24       1.0  0.2433  0.6861999999999998  0.4368999999999999  1.0000
  Cd  Cd1       1.0  0.0341  0.0048  0.2582999999999999  1.0000
  Cd  Cd2       1.0  0.5341  0.4952  0.7417  1.0000
  Cd  Cd3       1.0  0.9658999999999999  0.5048  0.24170000000000005  1.0000
  Cd  Cd4       1.0  0.4659  0.9951999999999999  0.7583  1.0000
  Cd  Cd5       1.0  0.0048  0.2582999999999999  0.0341  1.0000
  Cd  Cd6       1.0  0.4952  0.7417  0.5341  1.0000
  Cd  Cd7       1.0  0.5048  0.24170000000000005  0.9658999999999999  1.0000
  Cd  Cd8       1.0  0.9951999999999999  0.7583  0.4659  1.0000
  Cd  Cd9       1.0  0.2582999999999999  0.0341  0.0048  1.0000
  Cd  Cd10      1.0  0.7417  0.5341  0.4952  1.0000
  Cd  Cd11      1.0  0.24170000000000005  0.9658999999999999  0.5048  1.0000
  Cd  Cd12      1.0  0.7583  0.4659  0.9951999999999999  1.0000
  Cd  Cd13      1.0  0.9658999999999999  0.9951999999999999  0.7417  1.0000
  Cd  Cd14      1.0  0.4659  0.5048  0.2582999999999999  1.0000
  Cd  Cd15      1.0  0.0341  0.4952  0.7583  1.0000
  Cd  Cd16      1.0  0.5341  0.0048  0.24170000000000005  1.0000
  Cd  Cd17      1.0  0.9951999999999999  0.7417  0.9658999999999999  1.0000
  Cd  Cd18      1.0  0.5048  0.2582999999999999  0.4659  1.0000
  Cd  Cd19      1.0  0.4952  0.7583  0.0341  1.0000
  Cd  Cd20      1.0  0.0048  0.24170000000000005  0.5341  1.0000
  Cd  Cd21      1.0  0.7417  0.9658999999999999  0.9951999999999999  1.0000
  Cd  Cd22      1.0  0.2582999999999999  0.4659  0.5048  1.0000
  Cd  Cd23      1.0  0.7583  0.0341  0.4952  1.0000
  Cd  Cd24      1.0  0.24170000000000005  0.5341  0.0048  1.0000
  Cd  Cd25      1.0  0.21759999999999993  0.21759999999999993  0.21759999999999993  1.0000
  Cd  Cd26      1.0  0.7176  0.28240000000000004  0.7824  1.0000
  Cd  Cd27      1.0  0.7824  0.7176  0.28240000000000004  1.0000
  Cd  Cd28      1.0  0.28240000000000004  0.7824  0.7176  1.0000
  Cd  Cd29      1.0  0.7824  0.7824  0.7824  1.0000
  Cd  Cd30      1.0  0.28240000000000004  0.7176  0.21759999999999993  1.0000
  Cd  Cd31      1.0  0.21759999999999993  0.28240000000000004  0.7176  1.0000
  Cd  Cd32      1.0  0.7176  0.21759999999999993  0.28240000000000004  1.0000
  As  As1       1.0  0.1033  0.1033  0.1033  1.0000
  As  As2       1.0  0.6033  0.39669999999999994  0.8966999999999999  1.0000
  As  As3       1.0  0.8966999999999999  0.6033  0.39669999999999994  1.0000
  As  As4       1.0  0.39669999999999994  0.8966999999999999  0.6033  1.0000
  As  As5       1.0  0.8966999999999999  0.8966999999999999  0.8966999999999999  1.0000
  As  As6       1.0  0.39669999999999994  0.6033  0.1033  1.0000
  As  As7       1.0  0.1033  0.39669999999999994  0.6033  1.0000
  As  As8       1.0  0.6033  0.1033  0.39669999999999994  1.0000
  As  As9       1.0  0.4467  0.4467  0.4467  1.0000
  As  As10      1.0  0.9466999999999999  0.05330000000000001  0.5532999999999999  1.0000
  As  As11      1.0  0.5532999999999999  0.9466999999999999  0.05330000000000001  1.0000
  As  As12      1.0  0.05330000000000001  0.5532999999999999  0.9466999999999999  1.0000
  As  As13      1.0  0.5532999999999999  0.5532999999999999  0.5532999999999999  1.0000
  As  As14      1.0  0.05330000000000001  0.9466999999999999  0.4467  1.0000
  As  As15      1.0  0.4467  0.05330000000000001  0.9466999999999999  1.0000
  As  As16      1.0  0.9466999999999999  0.4467  0.05330000000000001  1.0000
