data_image0
_chemical_formula_structural       Ba2Al4O8
_chemical_formula_sum              "Ba2 Al4 O8"
_cell_length_a       5.227
_cell_length_b       5.227
_cell_length_c       8.802
_cell_angle_alpha    90.0
_cell_angle_beta     90.0
_cell_angle_gamma    119.99999999999999

_space_group_name_H-M_alt    "P 1"
_space_group_IT_number       1

loop_
  _space_group_symop_operation_xyz
  'x, y, z'

loop_
  _atom_site_type_symbol
  _atom_site_label
  _atom_site_symmetry_multiplicity
  _atom_site_fract_x
  _atom_site_fract_y
  _atom_site_fract_z
  _atom_site_occupancy
  Ba  Ba1       1.0  0.0  0.0  0.25  1.0000
  Ba  Ba2       1.0  0.0  0.0  0.75  1.0000
  Al  Al1       1.0  0.3333  0.6667  0.051  1.0000
  Al  Al2       1.0  0.6667  0.3333  0.949  1.0000
  Al  Al3       1.0  0.6667000000000001  0.33330000000000004  0.551  1.0000
  Al  Al4       1.0  0.33330000000000004  0.6667000000000001  0.449  1.0000
  O   O1        1.0  0.3333  0.6667  0.25  1.0000
  O   O2        1.0  0.6667  0.3333  0.75  1.0000
  O   O3        1.0  0.343  0.0  0.0  1.0000
  O   O4        1.0  4.368972925717366e-18  0.343  0.0  1.0000
  O   O5        1.0  0.657  0.657  0.0  1.0000
  O   O6        1.0  0.657  0.0  0.5  1.0000
  O   O7        1.0  2.1464453410468643e-18  0.657  0.5  1.0000
  O   O8        1.0  0.343  0.343  0.5  1.0000
