data_image0
_chemical_formula_structural       Mo72Na40Li8O240
_chemical_formula_sum              "Mo72 Na40 Li8 O240"
_cell_length_a       7.1927
_cell_length_b       37.159
_cell_length_c       17.925
_cell_angle_alpha    90.0
_cell_angle_beta     90.0
_cell_angle_gamma    90.0

_space_group_name_H-M_alt    "P 1"
_space_group_IT_number       1

loop_
  _space_group_symop_operation_xyz
  'x, y, z'

loop_
  _atom_site_type_symbol
  _atom_site_label
  _atom_site_symmetry_multiplicity
  _atom_site_fract_x
  _atom_site_fract_y
  _atom_site_fract_z
  _atom_site_occupancy
  Mo  Mo1       1.0  0.29758  0.045998  0.10592  1.0000
  Mo  Mo2       1.0  0.70242  0.9540020000000001  0.10592  1.0000
  Mo  Mo3       1.0  0.9524200000000002  0.295998  0.35592  1.0000
  Mo  Mo4       1.0  0.54758  0.20400200000000002  0.35592  1.0000
  Mo  Mo5       1.0  0.29758  0.545998  0.60592  1.0000
  Mo  Mo6       1.0  0.70242  0.454002  0.60592  1.0000
  Mo  Mo7       1.0  0.9524200000000002  0.795998  0.85592  1.0000
  Mo  Mo8       1.0  0.54758  0.704002  0.85592  1.0000
  Mo  Mo9       1.0  0.7975800000000001  0.045998  0.60592  1.0000
  Mo  Mo10      1.0  0.20242000000000002  0.9540020000000001  0.60592  1.0000
  Mo  Mo11      1.0  0.45242000000000004  0.295998  0.85592  1.0000
  Mo  Mo12      1.0  0.047579999999999956  0.20400200000000002  0.85592  1.0000
  Mo  Mo13      1.0  0.7975800000000001  0.545998  0.10592  1.0000
  Mo  Mo14      1.0  0.20242000000000002  0.454002  0.10592  1.0000
  Mo  Mo15      1.0  0.45242000000000004  0.795998  0.35592  1.0000
  Mo  Mo16      1.0  0.047579999999999956  0.704002  0.35592  1.0000
  Mo  Mo17      1.0  0.21226000000000006  0.150362  0.29407  1.0000
  Mo  Mo18      1.0  0.7877400000000001  0.849638  0.29407  1.0000
  Mo  Mo19      1.0  0.03773999999999997  0.400362  0.54407  1.0000
  Mo  Mo20      1.0  0.46226000000000006  0.099638  0.54407  1.0000
  Mo  Mo21      1.0  0.21226000000000006  0.650362  0.79407  1.0000
  Mo  Mo22      1.0  0.7877400000000001  0.349638  0.79407  1.0000
  Mo  Mo23      1.0  0.03773999999999997  0.900362  0.04407000000000006  1.0000
  Mo  Mo24      1.0  0.46226000000000006  0.599638  0.04407000000000006  1.0000
  Mo  Mo25      1.0  0.7122600000000001  0.150362  0.79407  1.0000
  Mo  Mo26      1.0  0.28774  0.849638  0.79407  1.0000
  Mo  Mo27      1.0  0.53774  0.400362  0.04407000000000006  1.0000
  Mo  Mo28      1.0  0.96226  0.099638  0.04407000000000006  1.0000
  Mo  Mo29      1.0  0.7122600000000001  0.650362  0.29407  1.0000
  Mo  Mo30      1.0  0.28774  0.349638  0.29407  1.0000
  Mo  Mo31      1.0  0.53774  0.900362  0.54407  1.0000
  Mo  Mo32      1.0  0.96226  0.599638  0.54407  1.0000
  Mo  Mo33      1.0  0.30801  0.149366  0.10618  1.0000
  Mo  Mo34      1.0  0.69199  0.850634  0.10618  1.0000
  Mo  Mo35      1.0  0.9419900000000001  0.399366  0.35618  1.0000
  Mo  Mo36      1.0  0.55801  0.100634  0.35618  1.0000
  Mo  Mo37      1.0  0.30801  0.649366  0.6061799999999999  1.0000
  Mo  Mo38      1.0  0.69199  0.350634  0.6061799999999999  1.0000
  Mo  Mo39      1.0  0.9419900000000001  0.899366  0.85618  1.0000
  Mo  Mo40      1.0  0.55801  0.600634  0.85618  1.0000
  Mo  Mo41      1.0  0.8080100000000001  0.149366  0.6061799999999999  1.0000
  Mo  Mo42      1.0  0.19199  0.850634  0.6061799999999999  1.0000
  Mo  Mo43      1.0  0.44199000000000005  0.399366  0.85618  1.0000
  Mo  Mo44      1.0  0.0580099999999999  0.100634  0.85618  1.0000
  Mo  Mo45      1.0  0.8080100000000001  0.649366  0.10618  1.0000
  Mo  Mo46      1.0  0.19199  0.350634  0.10618  1.0000
  Mo  Mo47      1.0  0.44199000000000005  0.899366  0.35618  1.0000
  Mo  Mo48      1.0  0.0580099999999999  0.600634  0.35618  1.0000
  Mo  Mo49      1.0  0.2138  0.048223  0.28412  1.0000
  Mo  Mo50      1.0  0.7862000000000001  0.951777  0.28412  1.0000
  Mo  Mo51      1.0  0.03620000000000001  0.298223  0.5341199999999999  1.0000
  Mo  Mo52      1.0  0.46380000000000005  0.20177699999999998  0.5341199999999999  1.0000
  Mo  Mo53      1.0  0.2138  0.548223  0.78412  1.0000
  Mo  Mo54      1.0  0.7862000000000001  0.451777  0.78412  1.0000
  Mo  Mo55      1.0  0.03620000000000001  0.798223  0.03411999999999993  1.0000
  Mo  Mo56      1.0  0.46380000000000005  0.701777  0.03411999999999993  1.0000
  Mo  Mo57      1.0  0.7138000000000001  0.048223  0.78412  1.0000
  Mo  Mo58      1.0  0.28620000000000007  0.951777  0.78412  1.0000
  Mo  Mo59      1.0  0.5362000000000001  0.298223  0.03411999999999993  1.0000
  Mo  Mo60      1.0  0.9638000000000001  0.20177699999999998  0.03411999999999993  1.0000
  Mo  Mo61      1.0  0.7138000000000001  0.548223  0.28412  1.0000
  Mo  Mo62      1.0  0.28620000000000007  0.451777  0.28412  1.0000
  Mo  Mo63      1.0  0.5362000000000001  0.798223  0.5341199999999999  1.0000
  Mo  Mo64      1.0  0.9638000000000001  0.701777  0.5341199999999999  1.0000
  Mo  Mo65      1.0  0.25  0.25  0.12906  1.0000
  Mo  Mo66      1.0  0.75  0.75  0.12906  1.0000
  Mo  Mo67      1.0  0.0  0.5  0.37906  1.0000
  Mo  Mo68      1.0  0.5  0.0  0.37906  1.0000
  Mo  Mo69      1.0  0.25  0.75  0.62906  1.0000
  Mo  Mo70      1.0  0.75  0.25  0.62906  1.0000
  Mo  Mo71      1.0  0.0  0.0  0.87906  1.0000
  Mo  Mo72      1.0  0.5  0.5  0.87906  1.0000
  Na  Na1       1.0  0.7664000000000002  0.15195  0.1994  1.0000
  Na  Na2       1.0  0.23359999999999995  0.84805  0.1994  1.0000
  Na  Na3       1.0  0.4836  0.40195000000000003  0.4494  1.0000
  Na  Na4       1.0  0.016399999999999974  0.09805  0.4494  1.0000
  Na  Na5       1.0  0.7664000000000002  0.65195  0.6994000000000001  1.0000
  Na  Na6       1.0  0.23359999999999995  0.34804999999999997  0.6994000000000001  1.0000
  Na  Na7       1.0  0.4836  0.9019499999999999  0.9494000000000001  1.0000
  Na  Na8       1.0  0.016399999999999974  0.59805  0.9494000000000001  1.0000
  Na  Na9       1.0  0.26639999999999997  0.15195  0.6994000000000001  1.0000
  Na  Na10      1.0  0.7336  0.84805  0.6994000000000001  1.0000
  Na  Na11      1.0  0.9835999999999999  0.40195000000000003  0.9494000000000001  1.0000
  Na  Na12      1.0  0.5164  0.09805  0.9494000000000001  1.0000
  Na  Na13      1.0  0.26639999999999997  0.65195  0.1994  1.0000
  Na  Na14      1.0  0.7336  0.34804999999999997  0.1994  1.0000
  Na  Na15      1.0  0.9835999999999999  0.9019499999999999  0.4494  1.0000
  Na  Na16      1.0  0.5164  0.59805  0.4494  1.0000
  Na  Na17      1.0  0.7455000000000003  0.0466  0.19700000000000006  1.0000
  Na  Na18      1.0  0.2544999999999999  0.9534000000000001  0.19700000000000006  1.0000
  Na  Na19      1.0  0.5045  0.2966  0.4470000000000001  1.0000
  Na  Na20      1.0  0.9955000000000003  0.2034  0.4470000000000001  1.0000
  Na  Na21      1.0  0.7455000000000003  0.5466  0.6970000000000001  1.0000
  Na  Na22      1.0  0.2544999999999999  0.45339999999999997  0.6970000000000001  1.0000
  Na  Na23      1.0  0.5045  0.7966  0.9470000000000001  1.0000
  Na  Na24      1.0  0.9955000000000003  0.7034  0.9470000000000001  1.0000
  Na  Na25      1.0  0.2455000000000003  0.0466  0.6970000000000001  1.0000
  Na  Na26      1.0  0.7544999999999998  0.9534000000000001  0.6970000000000001  1.0000
  Na  Na27      1.0  0.0044999999999998375  0.2966  0.9470000000000001  1.0000
  Na  Na28      1.0  0.49550000000000033  0.2034  0.9470000000000001  1.0000
  Na  Na29      1.0  0.2455000000000003  0.5466  0.19700000000000006  1.0000
  Na  Na30      1.0  0.7544999999999998  0.45339999999999997  0.19700000000000006  1.0000
  Na  Na31      1.0  0.0044999999999998375  0.7966  0.4470000000000001  1.0000
  Na  Na32      1.0  0.49550000000000033  0.7034  0.4470000000000001  1.0000
  Na  Na33      1.0  0.5  0.0  0.9515  1.0000
  Na  Na34      1.0  0.75  0.25  0.2015  1.0000
  Na  Na35      1.0  0.5  0.5  0.45150000000000007  1.0000
  Na  Na36      1.0  0.75  0.75  0.7015  1.0000
  Na  Na37      1.0  0.0  0.0  0.45150000000000007  1.0000
  Na  Na38      1.0  0.25  0.25  0.7015  1.0000
  Na  Na39      1.0  0.0  0.5  0.9515  1.0000
  Na  Na40      1.0  0.25  0.75  0.2015  1.0000
  Li  Li1       1.0  0.0  0.0  0.04420000000000001  1.0000
  Li  Li2       1.0  0.25  0.25  0.2942  1.0000
  Li  Li3       1.0  0.0  0.5  0.5442  1.0000
  Li  Li4       1.0  0.25  0.75  0.7942  1.0000
  Li  Li5       1.0  0.5  0.0  0.5442  1.0000
  Li  Li6       1.0  0.75  0.25  0.7942  1.0000
  Li  Li7       1.0  0.5  0.5  0.04420000000000001  1.0000
  Li  Li8       1.0  0.75  0.75  0.2942  1.0000
  O   O1        1.0  0.06710000000000003  0.0504  0.2076  1.0000
  O   O2        1.0  0.9329000000000001  0.9496  0.2076  1.0000
  O   O3        1.0  0.1829  0.3004  0.45760000000000006  1.0000
  O   O4        1.0  0.31710000000000005  0.1996  0.45760000000000006  1.0000
  O   O5        1.0  0.06710000000000003  0.5504  0.7076  1.0000
  O   O6        1.0  0.9329000000000001  0.4496  0.7076  1.0000
  O   O7        1.0  0.1829  0.8004  0.9576  1.0000
  O   O8        1.0  0.31710000000000005  0.6996  0.9576  1.0000
  O   O9        1.0  0.5671  0.0504  0.7076  1.0000
  O   O10       1.0  0.4329  0.9496  0.7076  1.0000
  O   O11       1.0  0.6829  0.3004  0.9576  1.0000
  O   O12       1.0  0.8171000000000002  0.1996  0.9576  1.0000
  O   O13       1.0  0.5671  0.5504  0.2076  1.0000
  O   O14       1.0  0.4329  0.4496  0.2076  1.0000
  O   O15       1.0  0.6829  0.8004  0.45760000000000006  1.0000
  O   O16       1.0  0.8171000000000002  0.6996  0.45760000000000006  1.0000
  O   O17       1.0  0.7058000000000001  0.9975  0.2884  1.0000
  O   O18       1.0  0.2941999999999999  0.0025  0.2884  1.0000
  O   O19       1.0  0.5441999999999999  0.24750000000000003  0.5384  1.0000
  O   O20       1.0  0.9558000000000002  0.2525  0.5384  1.0000
  O   O21       1.0  0.7058000000000001  0.4975  0.7884  1.0000
  O   O22       1.0  0.2941999999999999  0.5025  0.7884  1.0000
  O   O23       1.0  0.5441999999999999  0.7475  0.03839999999999999  1.0000
  O   O24       1.0  0.9558000000000002  0.7525  0.03839999999999999  1.0000
  O   O25       1.0  0.2058  0.9975  0.7884  1.0000
  O   O26       1.0  0.7942  0.0025  0.7884  1.0000
  O   O27       1.0  0.044199999999999906  0.24750000000000003  0.03839999999999999  1.0000
  O   O28       1.0  0.45580000000000004  0.2525  0.03839999999999999  1.0000
  O   O29       1.0  0.2058  0.4975  0.2884  1.0000
  O   O30       1.0  0.7942  0.5025  0.2884  1.0000
  O   O31       1.0  0.044199999999999906  0.7475  0.5384  1.0000
  O   O32       1.0  0.45580000000000004  0.7525  0.5384  1.0000
  O   O33       1.0  0.4672000000000001  0.14957  0.0356  1.0000
  O   O34       1.0  0.5327999999999999  0.85043  0.0356  1.0000
  O   O35       1.0  0.7828  0.39957  0.2856  1.0000
  O   O36       1.0  0.7172000000000001  0.10042999999999999  0.2856  1.0000
  O   O37       1.0  0.4672000000000001  0.64957  0.5356  1.0000
  O   O38       1.0  0.5327999999999999  0.35043  0.5356  1.0000
  O   O39       1.0  0.7828  0.8995699999999999  0.7856  1.0000
  O   O40       1.0  0.7172000000000001  0.60043  0.7856  1.0000
  O   O41       1.0  0.9672000000000002  0.14957  0.5356  1.0000
  O   O42       1.0  0.03279999999999995  0.85043  0.5356  1.0000
  O   O43       1.0  0.28279999999999994  0.39957  0.7856  1.0000
  O   O44       1.0  0.2172000000000001  0.10042999999999999  0.7856  1.0000
  O   O45       1.0  0.9672000000000002  0.64957  0.0356  1.0000
  O   O46       1.0  0.03279999999999995  0.35043  0.0356  1.0000
  O   O47       1.0  0.28279999999999994  0.8995699999999999  0.2856  1.0000
  O   O48       1.0  0.2172000000000001  0.60043  0.2856  1.0000
  O   O49       1.0  0.08390000000000003  0.15022  0.2111  1.0000
  O   O50       1.0  0.9161000000000001  0.84978  0.2111  1.0000
  O   O51       1.0  0.16609999999999997  0.40022  0.4611  1.0000
  O   O52       1.0  0.33390000000000003  0.09978000000000001  0.4611  1.0000
  O   O53       1.0  0.08390000000000003  0.65022  0.7111000000000001  1.0000
  O   O54       1.0  0.9161000000000001  0.34978  0.7111000000000001  1.0000
  O   O55       1.0  0.16609999999999997  0.90022  0.9611000000000001  1.0000
  O   O56       1.0  0.33390000000000003  0.59978  0.9611000000000001  1.0000
  O   O57       1.0  0.5839  0.15022  0.7111000000000001  1.0000
  O   O58       1.0  0.4161  0.84978  0.7111000000000001  1.0000
  O   O59       1.0  0.6661  0.40022  0.9611000000000001  1.0000
  O   O60       1.0  0.8339000000000001  0.09978000000000001  0.9611000000000001  1.0000
  O   O61       1.0  0.5839  0.65022  0.2111  1.0000
  O   O62       1.0  0.4161  0.34978  0.2111  1.0000
  O   O63       1.0  0.6661  0.90022  0.4611  1.0000
  O   O64       1.0  0.8339000000000001  0.59978  0.4611  1.0000
  O   O65       1.0  0.04540000000000002  0.05306  0.049  1.0000
  O   O66       1.0  0.9546000000000001  0.94694  0.049  1.0000
  O   O67       1.0  0.2046  0.30306  0.29900000000000004  1.0000
  O   O68       1.0  0.2954  0.19694  0.29900000000000004  1.0000
  O   O69       1.0  0.04540000000000002  0.55306  0.549  1.0000
  O   O70       1.0  0.9546000000000001  0.44693999999999995  0.549  1.0000
  O   O71       1.0  0.2046  0.80306  0.799  1.0000
  O   O72       1.0  0.2954  0.69694  0.799  1.0000
  O   O73       1.0  0.5454  0.05306  0.549  1.0000
  O   O74       1.0  0.45460000000000006  0.94694  0.549  1.0000
  O   O75       1.0  0.7046  0.30306  0.799  1.0000
  O   O76       1.0  0.7954000000000001  0.19694  0.799  1.0000
  O   O77       1.0  0.5454  0.55306  0.049  1.0000
  O   O78       1.0  0.45460000000000006  0.44693999999999995  0.049  1.0000
  O   O79       1.0  0.7046  0.80306  0.29900000000000004  1.0000
  O   O80       1.0  0.7954000000000001  0.69694  0.29900000000000004  1.0000
  O   O81       1.0  0.44330000000000014  0.15057  0.1869  1.0000
  O   O82       1.0  0.5567  0.84943  0.1869  1.0000
  O   O83       1.0  0.8067000000000001  0.40057  0.43690000000000007  1.0000
  O   O84       1.0  0.6933  0.09942999999999999  0.43690000000000007  1.0000
  O   O85       1.0  0.44330000000000014  0.65057  0.6869000000000001  1.0000
  O   O86       1.0  0.5567  0.34943  0.6869000000000001  1.0000
  O   O87       1.0  0.8067000000000001  0.90057  0.9369000000000001  1.0000
  O   O88       1.0  0.6933  0.59943  0.9369000000000001  1.0000
  O   O89       1.0  0.9433000000000001  0.15057  0.6869000000000001  1.0000
  O   O90       1.0  0.056699999999999924  0.84943  0.6869000000000001  1.0000
  O   O91       1.0  0.3067  0.40057  0.9369000000000001  1.0000
  O   O92       1.0  0.19330000000000003  0.09942999999999999  0.9369000000000001  1.0000
  O   O93       1.0  0.9433000000000001  0.65057  0.1869  1.0000
  O   O94       1.0  0.056699999999999924  0.34943  0.1869  1.0000
  O   O95       1.0  0.3067  0.90057  0.43690000000000007  1.0000
  O   O96       1.0  0.19330000000000003  0.59943  0.43690000000000007  1.0000
  O   O97       1.0  0.2996  0.10005  0.295  1.0000
  O   O98       1.0  0.7004  0.89995  0.295  1.0000
  O   O99       1.0  0.9504000000000001  0.35005  0.5449999999999999  1.0000
  O   O100      1.0  0.5496  0.14995  0.5449999999999999  1.0000
  O   O101      1.0  0.2996  0.60005  0.795  1.0000
  O   O102      1.0  0.7004  0.39995  0.795  1.0000
  O   O103      1.0  0.9504000000000001  0.85005  0.04499999999999993  1.0000
  O   O104      1.0  0.5496  0.64995  0.04499999999999993  1.0000
  O   O105      1.0  0.7996000000000001  0.10005  0.795  1.0000
  O   O106      1.0  0.20040000000000002  0.89995  0.795  1.0000
  O   O107      1.0  0.4504000000000001  0.35005  0.04499999999999993  1.0000
  O   O108      1.0  0.04959999999999987  0.14995  0.04499999999999993  1.0000
  O   O109      1.0  0.7996000000000001  0.60005  0.295  1.0000
  O   O110      1.0  0.20040000000000002  0.39995  0.295  1.0000
  O   O111      1.0  0.4504000000000001  0.85005  0.5449999999999999  1.0000
  O   O112      1.0  0.04959999999999987  0.64995  0.5449999999999999  1.0000
  O   O113      1.0  0.45850000000000013  0.05059  0.0345  1.0000
  O   O114      1.0  0.5414999999999999  0.94941  0.0345  1.0000
  O   O115      1.0  0.7915  0.30059  0.2845  1.0000
  O   O116      1.0  0.7085000000000001  0.19941  0.2845  1.0000
  O   O117      1.0  0.45850000000000013  0.55059  0.5345  1.0000
  O   O118      1.0  0.5414999999999999  0.44941000000000003  0.5345  1.0000
  O   O119      1.0  0.7915  0.80059  0.7845  1.0000
  O   O120      1.0  0.7085000000000001  0.69941  0.7845  1.0000
  O   O121      1.0  0.9585000000000002  0.05059  0.5345  1.0000
  O   O122      1.0  0.04149999999999993  0.94941  0.5345  1.0000
  O   O123      1.0  0.2915  0.30059  0.7845  1.0000
  O   O124      1.0  0.20850000000000016  0.19941  0.7845  1.0000
  O   O125      1.0  0.9585000000000002  0.55059  0.0345  1.0000
  O   O126      1.0  0.04149999999999993  0.44941000000000003  0.0345  1.0000
  O   O127      1.0  0.2915  0.80059  0.2845  1.0000
  O   O128      1.0  0.20850000000000016  0.69941  0.2845  1.0000
  O   O129      1.0  0.4246000000000001  0.05372  0.1904  1.0000
  O   O130      1.0  0.5754  0.9462800000000001  0.1904  1.0000
  O   O131      1.0  0.8254  0.30372  0.44040000000000007  1.0000
  O   O132      1.0  0.6746000000000002  0.19628  0.44040000000000007  1.0000
  O   O133      1.0  0.4246000000000001  0.55372  0.6904  1.0000
  O   O134      1.0  0.5754  0.44627999999999995  0.6904  1.0000
  O   O135      1.0  0.8254  0.80372  0.9404  1.0000
  O   O136      1.0  0.6746000000000002  0.69628  0.9404  1.0000
  O   O137      1.0  0.9246000000000002  0.05372  0.6904  1.0000
  O   O138      1.0  0.07539999999999997  0.9462800000000001  0.6904  1.0000
  O   O139      1.0  0.32539999999999997  0.30372  0.9404  1.0000
  O   O140      1.0  0.1746000000000001  0.19628  0.9404  1.0000
  O   O141      1.0  0.9246000000000002  0.55372  0.1904  1.0000
  O   O142      1.0  0.07539999999999997  0.44627999999999995  0.1904  1.0000
  O   O143      1.0  0.32539999999999997  0.80372  0.44040000000000007  1.0000
  O   O144      1.0  0.1746000000000001  0.69628  0.44040000000000007  1.0000
  O   O145      1.0  0.7429  0.0003  0.6076  1.0000
  O   O146      1.0  0.2571  0.9996999999999999  0.6076  1.0000
  O   O147      1.0  0.5071  0.2503  0.8576  1.0000
  O   O148      1.0  0.9929000000000001  0.24969999999999998  0.8576  1.0000
  O   O149      1.0  0.7429  0.5003  0.10760000000000014  1.0000
  O   O150      1.0  0.2571  0.4996999999999999  0.10760000000000014  1.0000
  O   O151      1.0  0.5071  0.7503  0.35760000000000014  1.0000
  O   O152      1.0  0.9929000000000001  0.7497  0.35760000000000014  1.0000
  O   O153      1.0  0.24290000000000014  0.0003  0.10760000000000014  1.0000
  O   O154      1.0  0.7571000000000001  0.9996999999999999  0.10760000000000014  1.0000
  O   O155      1.0  0.007099999999999996  0.2503  0.35760000000000014  1.0000
  O   O156      1.0  0.49290000000000017  0.24969999999999998  0.35760000000000014  1.0000
  O   O157      1.0  0.24290000000000014  0.5003  0.6076  1.0000
  O   O158      1.0  0.7571000000000001  0.4996999999999999  0.6076  1.0000
  O   O159      1.0  0.007099999999999996  0.7503  0.8576  1.0000
  O   O160      1.0  0.49290000000000017  0.7497  0.8576  1.0000
  O   O161      1.0  0.05130000000000001  0.14798  0.3632  1.0000
  O   O162      1.0  0.9487000000000001  0.85202  0.3632  1.0000
  O   O163      1.0  0.19870000000000002  0.39798  0.6132  1.0000
  O   O164      1.0  0.3013  0.10202  0.6132  1.0000
  O   O165      1.0  0.05130000000000001  0.64798  0.8632000000000001  1.0000
  O   O166      1.0  0.9487000000000001  0.35202  0.8632000000000001  1.0000
  O   O167      1.0  0.19870000000000002  0.8979800000000001  0.11319999999999997  1.0000
  O   O168      1.0  0.3013  0.60202  0.11319999999999997  1.0000
  O   O169      1.0  0.5513  0.14798  0.8632000000000001  1.0000
  O   O170      1.0  0.44870000000000004  0.85202  0.8632000000000001  1.0000
  O   O171      1.0  0.6987  0.39798  0.11319999999999997  1.0000
  O   O172      1.0  0.8013000000000001  0.10202  0.11319999999999997  1.0000
  O   O173      1.0  0.5513  0.64798  0.3632  1.0000
  O   O174      1.0  0.44870000000000004  0.35202  0.3632  1.0000
  O   O175      1.0  0.6987  0.8979800000000001  0.6132  1.0000
  O   O176      1.0  0.8013000000000001  0.60202  0.6132  1.0000
  O   O177      1.0  0.4310000000000001  0.24629999999999996  0.1896  1.0000
  O   O178      1.0  0.5690000000000001  0.7537  0.1896  1.0000
  O   O179      1.0  0.8190000000000001  0.49629999999999996  0.4396  1.0000
  O   O180      1.0  0.6810000000000002  0.003700000000000037  0.4396  1.0000
  O   O181      1.0  0.4310000000000001  0.7463  0.6896000000000001  1.0000
  O   O182      1.0  0.5690000000000001  0.25370000000000004  0.6896000000000001  1.0000
  O   O183      1.0  0.8190000000000001  0.9963  0.9396  1.0000
  O   O184      1.0  0.6810000000000002  0.5037  0.9396  1.0000
  O   O185      1.0  0.931  0.24629999999999996  0.6896000000000001  1.0000
  O   O186      1.0  0.06899999999999996  0.7537  0.6896000000000001  1.0000
  O   O187      1.0  0.31899999999999995  0.49629999999999996  0.9396  1.0000
  O   O188      1.0  0.18100000000000008  0.003700000000000037  0.9396  1.0000
  O   O189      1.0  0.931  0.7463  0.1896  1.0000
  O   O190      1.0  0.06899999999999996  0.25370000000000004  0.1896  1.0000
  O   O191      1.0  0.31899999999999995  0.9963  0.4396  1.0000
  O   O192      1.0  0.18100000000000008  0.5037  0.4396  1.0000
  O   O193      1.0  0.0668  0.0504  0.3598  1.0000
  O   O194      1.0  0.9332000000000001  0.9496  0.3598  1.0000
  O   O195      1.0  0.1832  0.3004  0.6098000000000001  1.0000
  O   O196      1.0  0.3168  0.1996  0.6098000000000001  1.0000
  O   O197      1.0  0.0668  0.5504  0.8598  1.0000
  O   O198      1.0  0.9332000000000001  0.4496  0.8598  1.0000
  O   O199      1.0  0.1832  0.8004  0.1097999999999999  1.0000
  O   O200      1.0  0.3168  0.6996  0.1097999999999999  1.0000
  O   O201      1.0  0.5668  0.0504  0.8598  1.0000
  O   O202      1.0  0.4332000000000001  0.9496  0.8598  1.0000
  O   O203      1.0  0.6832000000000001  0.3004  0.1097999999999999  1.0000
  O   O204      1.0  0.8168000000000001  0.1996  0.1097999999999999  1.0000
  O   O205      1.0  0.5668  0.5504  0.3598  1.0000
  O   O206      1.0  0.4332000000000001  0.4496  0.3598  1.0000
  O   O207      1.0  0.6832000000000001  0.8004  0.6098000000000001  1.0000
  O   O208      1.0  0.8168000000000001  0.6996  0.6098000000000001  1.0000
  O   O209      1.0  0.22520000000000007  0.19936  0.10180000000000003  1.0000
  O   O210      1.0  0.7748  0.80064  0.10180000000000003  1.0000
  O   O211      1.0  0.024799999999999964  0.44936  0.3518  1.0000
  O   O212      1.0  0.4752000000000001  0.05063999999999999  0.3518  1.0000
  O   O213      1.0  0.22520000000000007  0.69936  0.6018  1.0000
  O   O214      1.0  0.7748  0.30064  0.6018  1.0000
  O   O215      1.0  0.024799999999999964  0.94936  0.8518  1.0000
  O   O216      1.0  0.4752000000000001  0.55064  0.8518  1.0000
  O   O217      1.0  0.7252000000000002  0.19936  0.6018  1.0000
  O   O218      1.0  0.27479999999999993  0.80064  0.6018  1.0000
  O   O219      1.0  0.5247999999999999  0.44936  0.8518  1.0000
  O   O220      1.0  0.9752000000000001  0.05063999999999999  0.8518  1.0000
  O   O221      1.0  0.7252000000000002  0.69936  0.10180000000000003  1.0000
  O   O222      1.0  0.27479999999999993  0.30064  0.10180000000000003  1.0000
  O   O223      1.0  0.5247999999999999  0.94936  0.3518  1.0000
  O   O224      1.0  0.9752000000000001  0.55064  0.3518  1.0000
  O   O225      1.0  0.2204  0.10175  0.10400000000000002  1.0000
  O   O226      1.0  0.7796000000000001  0.8982499999999999  0.10400000000000002  1.0000
  O   O227      1.0  0.02959999999999999  0.35175  0.354  1.0000
  O   O228      1.0  0.4704000000000001  0.14825  0.354  1.0000
  O   O229      1.0  0.2204  0.60175  0.604  1.0000
  O   O230      1.0  0.7796000000000001  0.39825  0.604  1.0000
  O   O231      1.0  0.02959999999999999  0.85175  0.854  1.0000
  O   O232      1.0  0.4704000000000001  0.64825  0.854  1.0000
  O   O233      1.0  0.7204  0.10175  0.604  1.0000
  O   O234      1.0  0.27959999999999996  0.8982499999999999  0.604  1.0000
  O   O235      1.0  0.5296  0.35175  0.854  1.0000
  O   O236      1.0  0.9704000000000002  0.14825  0.854  1.0000
  O   O237      1.0  0.7204  0.60175  0.10400000000000002  1.0000
  O   O238      1.0  0.27959999999999996  0.39825  0.10400000000000002  1.0000
  O   O239      1.0  0.5296  0.85175  0.354  1.0000
  O   O240      1.0  0.9704000000000002  0.64825  0.354  1.0000
