data_image0
_chemical_formula_structural       Bi12Sb12O44
_chemical_formula_sum              "Bi12 Sb12 O44"
_cell_length_a       9.4907
_cell_length_b       9.4907
_cell_length_c       9.4907
_cell_angle_alpha    90.0
_cell_angle_beta     90.0
_cell_angle_gamma    90.0

_space_group_name_H-M_alt    "P 1"
_space_group_IT_number       1

loop_
  _space_group_symop_operation_xyz
  'x, y, z'

loop_
  _atom_site_type_symbol
  _atom_site_label
  _atom_site_symmetry_multiplicity
  _atom_site_fract_x
  _atom_site_fract_y
  _atom_site_fract_z
  _atom_site_occupancy
  Bi  Bi1       1.0  0.3816  0.3816  0.3816  1.0000
  Bi  Bi2       1.0  0.3816  0.1184  0.1184  1.0000
  Bi  Bi3       1.0  0.1184  0.3816  0.1184  1.0000
  Bi  Bi4       1.0  0.1184  0.1184  0.3816  1.0000
  Bi  Bi5       1.0  0.6184000000000001  0.6184000000000001  0.6184000000000001  1.0000
  Bi  Bi6       1.0  0.6184000000000001  0.8815999999999999  0.8815999999999999  1.0000
  Bi  Bi7       1.0  0.8815999999999999  0.6184000000000001  0.8815999999999999  1.0000
  Bi  Bi8       1.0  0.8815999999999999  0.8815999999999999  0.6184000000000001  1.0000
  Bi  Bi9       1.0  0.0  0.0  0.0  1.0000
  Bi  Bi10      1.0  0.0  0.5  0.5  1.0000
  Bi  Bi11      1.0  0.5  0.0  0.5  1.0000
  Bi  Bi12      1.0  0.5  0.5  0.0  1.0000
  Sb  Sb1       1.0  0.594  0.75  0.25  0.6667
  Sb  Sb2       1.0  0.9059999999999999  0.75  0.25  0.6667
  Sb  Sb3       1.0  0.75  0.25  0.594  0.6667
  Sb  Sb4       1.0  0.75  0.25  0.9059999999999999  0.6667
  Sb  Sb5       1.0  0.25  0.594  0.75  0.6667
  Sb  Sb6       1.0  0.25  0.9059999999999999  0.75  0.6667
  Sb  Sb7       1.0  0.406  0.25  0.75  0.6667
  Sb  Sb8       1.0  0.09399999999999986  0.25  0.75  0.6667
  Sb  Sb9       1.0  0.25  0.75  0.406  0.6667
  Sb  Sb10      1.0  0.25  0.75  0.09399999999999986  0.6667
  Sb  Sb11      1.0  0.75  0.406  0.25  0.6667
  Sb  Sb12      1.0  0.75  0.09399999999999986  0.25  0.6667
  O   O1        1.0  0.136  0.136  0.136  1.0000
  O   O2        1.0  0.136  0.364  0.364  1.0000
  O   O3        1.0  0.364  0.136  0.364  1.0000
  O   O4        1.0  0.364  0.364  0.136  1.0000
  O   O5        1.0  0.864  0.864  0.864  1.0000
  O   O6        1.0  0.864  0.636  0.636  1.0000
  O   O7        1.0  0.636  0.864  0.636  1.0000
  O   O8        1.0  0.636  0.636  0.864  1.0000
  O   O9        1.0  0.601  0.25  0.25  1.0000
  O   O10       1.0  0.899  0.25  0.25  1.0000
  O   O11       1.0  0.25  0.25  0.601  1.0000
  O   O12       1.0  0.25  0.25  0.899  1.0000
  O   O13       1.0  0.25  0.601  0.25  1.0000
  O   O14       1.0  0.25  0.899  0.25  1.0000
  O   O15       1.0  0.399  0.75  0.75  1.0000
  O   O16       1.0  0.10099999999999998  0.75  0.75  1.0000
  O   O17       1.0  0.75  0.75  0.399  1.0000
  O   O18       1.0  0.75  0.75  0.10099999999999998  1.0000
  O   O19       1.0  0.75  0.399  0.75  1.0000
  O   O20       1.0  0.75  0.10099999999999998  0.75  1.0000
  O   O21       1.0  0.594  0.53  0.248  1.0000
  O   O22       1.0  0.594  0.9699999999999999  0.252  1.0000
  O   O23       1.0  0.9059999999999999  0.53  0.252  1.0000
  O   O24       1.0  0.9059999999999999  0.9699999999999999  0.248  1.0000
  O   O25       1.0  0.53  0.248  0.594  1.0000
  O   O26       1.0  0.9699999999999999  0.252  0.594  1.0000
  O   O27       1.0  0.53  0.252  0.9059999999999999  1.0000
  O   O28       1.0  0.9699999999999999  0.248  0.9059999999999999  1.0000
  O   O29       1.0  0.248  0.594  0.53  1.0000
  O   O30       1.0  0.252  0.594  0.9699999999999999  1.0000
  O   O31       1.0  0.252  0.9059999999999999  0.53  1.0000
  O   O32       1.0  0.248  0.9059999999999999  0.9699999999999999  1.0000
  O   O33       1.0  0.406  0.47  0.752  1.0000
  O   O34       1.0  0.406  0.030000000000000027  0.748  1.0000
  O   O35       1.0  0.09399999999999986  0.47  0.748  1.0000
  O   O36       1.0  0.09399999999999986  0.030000000000000027  0.752  1.0000
  O   O37       1.0  0.47  0.752  0.406  1.0000
  O   O38       1.0  0.030000000000000027  0.748  0.406  1.0000
  O   O39       1.0  0.47  0.748  0.09399999999999986  1.0000
  O   O40       1.0  0.030000000000000027  0.752  0.09399999999999986  1.0000
  O   O41       1.0  0.752  0.406  0.47  1.0000
  O   O42       1.0  0.748  0.406  0.030000000000000027  1.0000
  O   O43       1.0  0.748  0.09399999999999986  0.47  1.0000
  O   O44       1.0  0.752  0.09399999999999986  0.030000000000000027  1.0000
  Ga  Ga1       1.0  0.594  0.75  0.25  0.3333
  Ga  Ga2       1.0  0.9059999999999999  0.75  0.25  0.3333
  Ga  Ga3       1.0  0.75  0.25  0.594  0.3333
  Ga  Ga4       1.0  0.75  0.25  0.9059999999999999  0.3333
  Ga  Ga5       1.0  0.25  0.594  0.75  0.3333
  Ga  Ga6       1.0  0.25  0.9059999999999999  0.75  0.3333
  Ga  Ga7       1.0  0.406  0.25  0.75  0.3333
  Ga  Ga8       1.0  0.09399999999999986  0.25  0.75  0.3333
  Ga  Ga9       1.0  0.25  0.75  0.406  0.3333
  Ga  Ga10      1.0  0.25  0.75  0.09399999999999986  0.3333
  Ga  Ga11      1.0  0.75  0.406  0.25  0.3333
  Ga  Ga12      1.0  0.75  0.09399999999999986  0.25  0.3333
