data_image0
_chemical_formula_structural       Cd8P16O48
_chemical_formula_sum              "Cd8 P16 O48"
_cell_length_a       9.607
_cell_length_b       13.7
_cell_length_c       7.037
_cell_angle_alpha    90.0
_cell_angle_beta     90.0
_cell_angle_gamma    90.0

_space_group_name_H-M_alt    "P 1"
_space_group_IT_number       1

loop_
  _space_group_symop_operation_xyz
  'x, y, z'

loop_
  _atom_site_type_symbol
  _atom_site_label
  _atom_site_symmetry_multiplicity
  _atom_site_fract_x
  _atom_site_fract_y
  _atom_site_fract_z
  _atom_site_occupancy
  Cd  Cd1       1.0  0.99186  0.20572000000000001  0.05347  1.0000
  Cd  Cd2       1.0  0.49185999999999996  0.29428000000000004  0.9465300000000001  1.0000
  Cd  Cd3       1.0  0.00814  0.7057200000000001  0.44653000000000004  1.0000
  Cd  Cd4       1.0  0.50814  0.79428  0.55347  1.0000
  Cd  Cd5       1.0  0.00814  0.79428  0.9465300000000001  1.0000
  Cd  Cd6       1.0  0.50814  0.7057200000000001  0.05347  1.0000
  Cd  Cd7       1.0  0.99186  0.29428000000000004  0.55347  1.0000
  Cd  Cd8       1.0  0.49185999999999996  0.20572000000000001  0.44653000000000004  1.0000
  P   P1        1.0  0.21043  0.39362  0.18484  1.0000
  P   P2        1.0  0.7104299999999999  0.10637999999999997  0.81516  1.0000
  P   P3        1.0  0.78957  0.8936200000000001  0.31516000000000005  1.0000
  P   P4        1.0  0.28957  0.6063799999999999  0.68484  1.0000
  P   P5        1.0  0.78957  0.6063799999999999  0.81516  1.0000
  P   P6        1.0  0.28957  0.8936200000000001  0.18484  1.0000
  P   P7        1.0  0.21043  0.10637999999999997  0.68484  1.0000
  P   P8        1.0  0.7104299999999999  0.39362  0.31516000000000005  1.0000
  P   P9        1.0  0.30213  0.40348  0.5812  1.0000
  P   P10       1.0  0.80213  0.09652  0.41879999999999995  1.0000
  P   P11       1.0  0.6978699999999999  0.9034800000000002  0.9188  1.0000
  P   P12       1.0  0.19787  0.5965199999999999  0.08119999999999995  1.0000
  P   P13       1.0  0.6978699999999999  0.5965199999999999  0.41879999999999995  1.0000
  P   P14       1.0  0.19787  0.9034800000000002  0.5812  1.0000
  P   P15       1.0  0.30213  0.09652  0.08119999999999995  1.0000
  P   P16       1.0  0.80213  0.40348  0.9188  1.0000
  O   O1        1.0  0.2962  0.3719  0.0147  1.0000
  O   O2        1.0  0.7962  0.1281  0.9853000000000001  1.0000
  O   O3        1.0  0.7038  0.8719  0.48530000000000006  1.0000
  O   O4        1.0  0.20379999999999995  0.6281000000000001  0.5147  1.0000
  O   O5        1.0  0.7038  0.6281000000000001  0.9853000000000001  1.0000
  O   O6        1.0  0.20379999999999995  0.8719  0.0147  1.0000
  O   O7        1.0  0.2962  0.1281  0.5147  1.0000
  O   O8        1.0  0.7962  0.3719  0.48530000000000006  1.0000
  O   O9        1.0  0.10029999999999999  0.32210000000000005  0.2439  1.0000
  O   O10       1.0  0.6003  0.17789999999999995  0.7561  1.0000
  O   O11       1.0  0.8996999999999999  0.8221  0.25610000000000005  1.0000
  O   O12       1.0  0.3997  0.6779000000000001  0.7439  1.0000
  O   O13       1.0  0.8996999999999999  0.6779000000000001  0.7561  1.0000
  O   O14       1.0  0.3997  0.8221  0.2439  1.0000
  O   O15       1.0  0.10029999999999999  0.17789999999999995  0.7439  1.0000
  O   O16       1.0  0.6003  0.32210000000000005  0.25610000000000005  1.0000
  O   O17       1.0  0.4033  0.32460000000000006  0.6382  1.0000
  O   O18       1.0  0.9033  0.17539999999999994  0.3618  1.0000
  O   O19       1.0  0.5966999999999999  0.8246000000000001  0.8618000000000001  1.0000
  O   O20       1.0  0.09670000000000001  0.6754  0.13819999999999988  1.0000
  O   O21       1.0  0.5966999999999999  0.6754  0.3618  1.0000
  O   O22       1.0  0.09670000000000001  0.8246000000000001  0.6382  1.0000
  O   O23       1.0  0.4033  0.17539999999999994  0.13819999999999988  1.0000
  O   O24       1.0  0.9033  0.32460000000000006  0.8618000000000001  1.0000
  O   O25       1.0  0.1532  0.3670000000000001  0.6351  1.0000
  O   O26       1.0  0.6532  0.13299999999999995  0.36490000000000006  1.0000
  O   O27       1.0  0.8468  0.867  0.8649  1.0000
  O   O28       1.0  0.3468  0.6330000000000001  0.1351  1.0000
  O   O29       1.0  0.8468  0.6330000000000001  0.36490000000000006  1.0000
  O   O30       1.0  0.3468  0.867  0.6351  1.0000
  O   O31       1.0  0.1532  0.13299999999999995  0.1351  1.0000
  O   O32       1.0  0.6532  0.3670000000000001  0.8649  1.0000
  O   O33       1.0  0.3158  0.4128000000000001  0.3559000000000001  1.0000
  O   O34       1.0  0.8158000000000001  0.08719999999999996  0.6440999999999999  1.0000
  O   O35       1.0  0.6841999999999999  0.9128000000000001  0.14409999999999995  1.0000
  O   O36       1.0  0.18419999999999995  0.5872  0.8559000000000001  1.0000
  O   O37       1.0  0.6841999999999999  0.5872  0.6440999999999999  1.0000
  O   O38       1.0  0.18419999999999995  0.9128000000000001  0.3559000000000001  1.0000
  O   O39       1.0  0.3158  0.08719999999999996  0.8559000000000001  1.0000
  O   O40       1.0  0.8158000000000001  0.4128000000000001  0.14409999999999995  1.0000
  O   O41       1.0  0.1332  0.49630000000000013  0.1557  1.0000
  O   O42       1.0  0.6332  0.003699999999999926  0.8443000000000002  1.0000
  O   O43       1.0  0.8668  0.9963000000000001  0.34430000000000005  1.0000
  O   O44       1.0  0.3668  0.5036999999999999  0.6557000000000001  1.0000
  O   O45       1.0  0.8668  0.5036999999999999  0.8443000000000002  1.0000
  O   O46       1.0  0.3668  0.9963000000000001  0.1557  1.0000
  O   O47       1.0  0.1332  0.003699999999999926  0.6557000000000001  1.0000
  O   O48       1.0  0.6332  0.49630000000000013  0.34430000000000005  1.0000
