data_image0
_chemical_formula_structural       U16P32S112
_chemical_formula_sum              "U16 P32 S112"
_cell_length_a       8.921
_cell_length_b       15.198
_cell_length_c       30.104
_cell_angle_alpha    90.0
_cell_angle_beta     90.0
_cell_angle_gamma    90.0

_space_group_name_H-M_alt    "P 1"
_space_group_IT_number       1

loop_
  _space_group_symop_operation_xyz
  'x, y, z'

loop_
  _atom_site_type_symbol
  _atom_site_label
  _atom_site_symmetry_multiplicity
  _atom_site_fract_x
  _atom_site_fract_y
  _atom_site_fract_z
  _atom_site_occupancy
  U   U1        1.0  0.125  0.125  0.5153109999999997  1.0000
  U   U2        1.0  0.625  0.625  0.5153109999999997  1.0000
  U   U3        1.0  0.625  0.125  0.23468900000000012  1.0000
  U   U4        1.0  0.125  0.625  0.23468900000000012  1.0000
  U   U5        1.0  0.125  0.625  0.01531099999999985  1.0000
  U   U6        1.0  0.625  0.125  0.01531099999999985  1.0000
  U   U7        1.0  0.625  0.625  0.734689  1.0000
  U   U8        1.0  0.125  0.125  0.734689  1.0000
  U   U9        1.0  0.875  0.8749999999999999  0.48468900000000015  1.0000
  U   U10       1.0  0.375  0.375  0.48468900000000015  1.0000
  U   U11       1.0  0.375  0.8749999999999999  0.7653109999999999  1.0000
  U   U12       1.0  0.875  0.375  0.7653109999999999  1.0000
  U   U13       1.0  0.875  0.375  0.984689  1.0000
  U   U14       1.0  0.375  0.8749999999999999  0.984689  1.0000
  U   U15       1.0  0.375  0.375  0.26531099999999985  1.0000
  U   U16       1.0  0.875  0.8749999999999999  0.26531099999999985  1.0000
  P   P1        1.0  0.11836999999999999  0.3194  0.56908  1.0000
  P   P2        1.0  0.63163  0.4305999999999999  0.56908  1.0000
  P   P3        1.0  0.63163  0.3194  0.18091999999999994  1.0000
  P   P4        1.0  0.11836999999999999  0.4305999999999999  0.18091999999999994  1.0000
  P   P5        1.0  0.11836999999999999  0.8194  0.06908000000000002  1.0000
  P   P6        1.0  0.63163  0.9306  0.06908000000000002  1.0000
  P   P7        1.0  0.63163  0.8194  0.6809199999999999  1.0000
  P   P8        1.0  0.11836999999999999  0.9306  0.6809199999999999  1.0000
  P   P9        1.0  0.6183699999999999  0.3194  0.06908000000000002  1.0000
  P   P10       1.0  0.13163000000000002  0.4305999999999999  0.06908000000000002  1.0000
  P   P11       1.0  0.13163000000000002  0.3194  0.6809199999999999  1.0000
  P   P12       1.0  0.6183699999999999  0.4305999999999999  0.6809199999999999  1.0000
  P   P13       1.0  0.6183699999999999  0.8194  0.56908  1.0000
  P   P14       1.0  0.13163000000000002  0.9306  0.56908  1.0000
  P   P15       1.0  0.13163000000000002  0.8194  0.18091999999999994  1.0000
  P   P16       1.0  0.6183699999999999  0.9306  0.18091999999999994  1.0000
  P   P17       1.0  0.88163  0.6806  0.43091999999999997  1.0000
  P   P18       1.0  0.36837  0.5694  0.43091999999999997  1.0000
  P   P19       1.0  0.36837  0.6806  0.81908  1.0000
  P   P20       1.0  0.88163  0.5694  0.81908  1.0000
  P   P21       1.0  0.88163  0.18059999999999996  0.9309199999999999  1.0000
  P   P22       1.0  0.36837  0.0693999999999999  0.9309199999999999  1.0000
  P   P23       1.0  0.36837  0.18059999999999996  0.31908  1.0000
  P   P24       1.0  0.88163  0.0693999999999999  0.31908  1.0000
  P   P25       1.0  0.38162999999999997  0.6806  0.9309199999999999  1.0000
  P   P26       1.0  0.8683699999999999  0.5694  0.9309199999999999  1.0000
  P   P27       1.0  0.8683699999999999  0.6806  0.31908  1.0000
  P   P28       1.0  0.38162999999999997  0.5694  0.31908  1.0000
  P   P29       1.0  0.38162999999999997  0.18059999999999996  0.43091999999999997  1.0000
  P   P30       1.0  0.8683699999999999  0.0693999999999999  0.43091999999999997  1.0000
  P   P31       1.0  0.8683699999999999  0.18059999999999996  0.81908  1.0000
  P   P32       1.0  0.38162999999999997  0.0693999999999999  0.81908  1.0000
  S   S1        1.0  0.125  0.40261999999999987  0.6249999999999999  1.0000
  S   S2        1.0  0.625  0.3473800000000001  0.6249999999999999  1.0000
  S   S3        1.0  0.625  0.40261999999999987  0.1250000000000001  1.0000
  S   S4        1.0  0.125  0.3473800000000001  0.1250000000000001  1.0000
  S   S5        1.0  0.125  0.9026199999999999  0.12499999999999999  1.0000
  S   S6        1.0  0.625  0.84738  0.12499999999999999  1.0000
  S   S7        1.0  0.625  0.9026199999999999  0.625  1.0000
  S   S8        1.0  0.125  0.84738  0.625  1.0000
  S   S9        1.0  0.875  0.59738  0.3750000000000001  1.0000
  S   S10       1.0  0.375  0.65262  0.3750000000000001  1.0000
  S   S11       1.0  0.375  0.59738  0.8749999999999999  1.0000
  S   S12       1.0  0.875  0.65262  0.8749999999999999  1.0000
  S   S13       1.0  0.875  0.09738000000000008  0.875  1.0000
  S   S14       1.0  0.375  0.15261999999999998  0.875  1.0000
  S   S15       1.0  0.375  0.09738000000000008  0.37499999999999994  1.0000
  S   S16       1.0  0.875  0.15261999999999998  0.37499999999999994  1.0000
  S   S17       1.0  0.3174699999999999  0.25662  0.55689  1.0000
  S   S18       1.0  0.4325300000000001  0.49338  0.55689  1.0000
  S   S19       1.0  0.4325300000000001  0.25662  0.19310999999999998  1.0000
  S   S20       1.0  0.3174699999999999  0.49338  0.19310999999999998  1.0000
  S   S21       1.0  0.3174699999999999  0.75662  0.0568900000000001  1.0000
  S   S22       1.0  0.4325300000000001  0.9933799999999999  0.0568900000000001  1.0000
  S   S23       1.0  0.4325300000000001  0.75662  0.6931099999999999  1.0000
  S   S24       1.0  0.3174699999999999  0.9933799999999999  0.6931099999999999  1.0000
  S   S25       1.0  0.8174699999999999  0.25662  0.0568900000000001  1.0000
  S   S26       1.0  0.9325300000000001  0.49338  0.0568900000000001  1.0000
  S   S27       1.0  0.9325300000000001  0.25662  0.6931099999999999  1.0000
  S   S28       1.0  0.8174699999999999  0.49338  0.6931099999999999  1.0000
  S   S29       1.0  0.8174699999999999  0.75662  0.55689  1.0000
  S   S30       1.0  0.9325300000000001  0.9933799999999999  0.55689  1.0000
  S   S31       1.0  0.9325300000000001  0.75662  0.19310999999999998  1.0000
  S   S32       1.0  0.8174699999999999  0.9933799999999999  0.19310999999999998  1.0000
  S   S33       1.0  0.68253  0.7433799999999999  0.44311  1.0000
  S   S34       1.0  0.5674699999999999  0.5066200000000001  0.44311  1.0000
  S   S35       1.0  0.5674699999999999  0.7433799999999999  0.80689  1.0000
  S   S36       1.0  0.68253  0.5066200000000001  0.80689  1.0000
  S   S37       1.0  0.68253  0.24337999999999996  0.9431099999999999  1.0000
  S   S38       1.0  0.5674699999999999  0.00662000000000007  0.9431099999999999  1.0000
  S   S39       1.0  0.5674699999999999  0.24337999999999996  0.30689000000000005  1.0000
  S   S40       1.0  0.68253  0.00662000000000007  0.30689000000000005  1.0000
  S   S41       1.0  0.18253000000000005  0.7433799999999999  0.9431099999999999  1.0000
  S   S42       1.0  0.06746999999999992  0.5066200000000001  0.9431099999999999  1.0000
  S   S43       1.0  0.06746999999999992  0.7433799999999999  0.30689000000000005  1.0000
  S   S44       1.0  0.18253000000000005  0.5066200000000001  0.30689000000000005  1.0000
  S   S45       1.0  0.18253000000000005  0.24337999999999996  0.44311  1.0000
  S   S46       1.0  0.06746999999999992  0.00662000000000007  0.44311  1.0000
  S   S47       1.0  0.06746999999999992  0.24337999999999996  0.80689  1.0000
  S   S48       1.0  0.18253000000000005  0.00662000000000007  0.80689  1.0000
  S   S49       1.0  0.08807  0.4071  0.51967  1.0000
  S   S50       1.0  0.66193  0.3429  0.51967  1.0000
  S   S51       1.0  0.66193  0.4071  0.23033  1.0000
  S   S52       1.0  0.08807  0.3429  0.23033  1.0000
  S   S53       1.0  0.08807  0.9071  0.019670000000000073  1.0000
  S   S54       1.0  0.66193  0.8428999999999999  0.019670000000000073  1.0000
  S   S55       1.0  0.66193  0.9071  0.73033  1.0000
  S   S56       1.0  0.08807  0.8428999999999999  0.73033  1.0000
  S   S57       1.0  0.58807  0.4071  0.019670000000000073  1.0000
  S   S58       1.0  0.16193000000000002  0.3429  0.019670000000000073  1.0000
  S   S59       1.0  0.16193000000000002  0.4071  0.73033  1.0000
  S   S60       1.0  0.58807  0.3429  0.73033  1.0000
  S   S61       1.0  0.58807  0.9071  0.51967  1.0000
  S   S62       1.0  0.16193000000000002  0.8428999999999999  0.51967  1.0000
  S   S63       1.0  0.16193000000000002  0.9071  0.23033  1.0000
  S   S64       1.0  0.58807  0.8428999999999999  0.23033  1.0000
  S   S65       1.0  0.91193  0.5928999999999999  0.48033  1.0000
  S   S66       1.0  0.33807  0.6571  0.48033  1.0000
  S   S67       1.0  0.33807  0.5928999999999999  0.7696699999999999  1.0000
  S   S68       1.0  0.91193  0.6571  0.7696699999999999  1.0000
  S   S69       1.0  0.91193  0.09289999999999998  0.9803299999999999  1.0000
  S   S70       1.0  0.33807  0.15710000000000002  0.9803299999999999  1.0000
  S   S71       1.0  0.33807  0.09289999999999998  0.26967  1.0000
  S   S72       1.0  0.91193  0.15710000000000002  0.26967  1.0000
  S   S73       1.0  0.41193  0.5928999999999999  0.9803299999999999  1.0000
  S   S74       1.0  0.83807  0.6571  0.9803299999999999  1.0000
  S   S75       1.0  0.83807  0.5928999999999999  0.26967  1.0000
  S   S76       1.0  0.41193  0.6571  0.26967  1.0000
  S   S77       1.0  0.41193  0.09289999999999998  0.48033  1.0000
  S   S78       1.0  0.83807  0.15710000000000002  0.48033  1.0000
  S   S79       1.0  0.83807  0.09289999999999998  0.7696699999999999  1.0000
  S   S80       1.0  0.41193  0.15710000000000002  0.7696699999999999  1.0000
  S   S81       1.0  0.96366  0.22491  0.5764199999999998  1.0000
  S   S82       1.0  0.78634  0.5250900000000001  0.5764199999999998  1.0000
  S   S83       1.0  0.78634  0.22491  0.17358000000000007  1.0000
  S   S84       1.0  0.96366  0.5250900000000001  0.17358000000000007  1.0000
  S   S85       1.0  0.96366  0.7249099999999998  0.07641999999999993  1.0000
  S   S86       1.0  0.78634  0.02509  0.07641999999999993  1.0000
  S   S87       1.0  0.78634  0.7249099999999998  0.6735800000000001  1.0000
  S   S88       1.0  0.96366  0.02509  0.6735800000000001  1.0000
  S   S89       1.0  0.46366  0.22491  0.07641999999999993  1.0000
  S   S90       1.0  0.28633999999999993  0.5250900000000001  0.07641999999999993  1.0000
  S   S91       1.0  0.28633999999999993  0.22491  0.6735800000000001  1.0000
  S   S92       1.0  0.46366  0.5250900000000001  0.6735800000000001  1.0000
  S   S93       1.0  0.46366  0.7249099999999998  0.5764199999999998  1.0000
  S   S94       1.0  0.28633999999999993  0.02509  0.5764199999999998  1.0000
  S   S95       1.0  0.28633999999999993  0.7249099999999998  0.17358000000000007  1.0000
  S   S96       1.0  0.46366  0.02509  0.17358000000000007  1.0000
  S   S97       1.0  0.03633999999999999  0.7750900000000001  0.42358000000000007  1.0000
  S   S98       1.0  0.21366000000000002  0.47491  0.42358000000000007  1.0000
  S   S99       1.0  0.21366000000000002  0.7750900000000001  0.8264199999999998  1.0000
  S   S100      1.0  0.03633999999999999  0.47491  0.8264199999999998  1.0000
  S   S101      1.0  0.03633999999999999  0.27508999999999995  0.92358  1.0000
  S   S102      1.0  0.21366000000000002  0.9749099999999998  0.92358  1.0000
  S   S103      1.0  0.21366000000000002  0.27508999999999995  0.3264199999999999  1.0000
  S   S104      1.0  0.03633999999999999  0.9749099999999998  0.3264199999999999  1.0000
  S   S105      1.0  0.53634  0.7750900000000001  0.92358  1.0000
  S   S106      1.0  0.71366  0.47491  0.92358  1.0000
  S   S107      1.0  0.71366  0.7750900000000001  0.3264199999999999  1.0000
  S   S108      1.0  0.53634  0.47491  0.3264199999999999  1.0000
  S   S109      1.0  0.53634  0.27508999999999995  0.42358000000000007  1.0000
  S   S110      1.0  0.71366  0.9749099999999998  0.42358000000000007  1.0000
  S   S111      1.0  0.71366  0.27508999999999995  0.8264199999999998  1.0000
  S   S112      1.0  0.53634  0.9749099999999998  0.8264199999999998  1.0000
