data_image0
_chemical_formula_structural       S24O48
_chemical_formula_sum              "S24 O48"
_cell_length_a       10.3359
_cell_length_b       15.0175
_cell_length_c       8.8638
_cell_angle_alpha    90.0
_cell_angle_beta     105.3562
_cell_angle_gamma    90.0

_space_group_name_H-M_alt    "P 1"
_space_group_IT_number       1

loop_
  _space_group_symop_operation_xyz
  'x, y, z'

loop_
  _atom_site_type_symbol
  _atom_site_label
  _atom_site_symmetry_multiplicity
  _atom_site_fract_x
  _atom_site_fract_y
  _atom_site_fract_z
  _atom_site_occupancy
  S   S1        1.0  0.6486  0.2442  0.10819999999999998  1.0000
  S   S2        1.0  0.3514  0.2442  0.8917999999999999  1.0000
  S   S3        1.0  0.3514  0.7558  0.8917999999999999  1.0000
  S   S4        1.0  0.6486  0.7558  0.10819999999999998  1.0000
  S   S5        1.0  0.14860000000000007  0.7442  0.10819999999999998  1.0000
  S   S6        1.0  0.8514000000000002  0.7442  0.8917999999999999  1.0000
  S   S7        1.0  0.8514000000000002  0.2558000000000001  0.8917999999999999  1.0000
  S   S8        1.0  0.14860000000000007  0.2558000000000001  0.10819999999999998  1.0000
  S   S9        1.0  0.6957  0.3997000000000001  0.6684  1.0000
  S   S10       1.0  0.3043  0.3997000000000001  0.3316  1.0000
  S   S11       1.0  0.3043  0.6003000000000001  0.3316  1.0000
  S   S12       1.0  0.6957  0.6003000000000001  0.6684  1.0000
  S   S13       1.0  0.1957  0.8997000000000002  0.6684  1.0000
  S   S14       1.0  0.8043  0.8997000000000002  0.3316  1.0000
  S   S15       1.0  0.8043  0.10029999999999996  0.3316  1.0000
  S   S16       1.0  0.1957  0.10029999999999996  0.6684  1.0000
  S   S17       1.0  0.6000000000000001  0.3989300000000001  0.3085  1.0000
  S   S18       1.0  0.3999999999999999  0.3989300000000001  0.6915  1.0000
  S   S19       1.0  0.3999999999999999  0.6010700000000001  0.6915  1.0000
  S   S20       1.0  0.6000000000000001  0.6010700000000001  0.3085  1.0000
  S   S21       1.0  0.10000000000000009  0.8989300000000001  0.3085  1.0000
  S   S22       1.0  0.9  0.8989300000000001  0.6915  1.0000
  S   S23       1.0  0.9  0.10106999999999994  0.6915  1.0000
  S   S24       1.0  0.10000000000000009  0.10106999999999994  0.3085  1.0000
  O   O1        1.0  0.5  0.22100000000000006  0.0  1.0000
  O   O2        1.0  0.5  0.7789999999999999  0.0  1.0000
  O   O3        1.0  0.0  0.7210000000000001  0.0  1.0000
  O   O4        1.0  0.0  0.27899999999999997  0.0  1.0000
  O   O5        1.0  0.8072  0.3381  0.7758  1.0000
  O   O6        1.0  0.19279999999999997  0.3381  0.22419999999999995  1.0000
  O   O7        1.0  0.19279999999999997  0.6618999999999999  0.22419999999999995  1.0000
  O   O8        1.0  0.8072  0.6618999999999999  0.7758  1.0000
  O   O9        1.0  0.3071999999999999  0.8381000000000001  0.7758  1.0000
  O   O10       1.0  0.6928  0.8381000000000001  0.22419999999999995  1.0000
  O   O11       1.0  0.6928  0.1619  0.22419999999999995  1.0000
  O   O12       1.0  0.3071999999999999  0.1619  0.7758  1.0000
  O   O13       1.0  0.6205  0.5  0.2672  1.0000
  O   O14       1.0  0.3795  0.5  0.7328  1.0000
  O   O15       1.0  0.12050000000000005  0.0  0.2672  1.0000
  O   O16       1.0  0.8795  0.0  0.7328  1.0000
  O   O17       1.0  0.6569  0.3365000000000001  0.19639999999999994  1.0000
  O   O18       1.0  0.34309999999999996  0.3365000000000001  0.8036000000000001  1.0000
  O   O19       1.0  0.34309999999999996  0.6635000000000001  0.8036000000000001  1.0000
  O   O20       1.0  0.6569  0.6635000000000001  0.19639999999999994  1.0000
  O   O21       1.0  0.15690000000000004  0.8365000000000001  0.19639999999999994  1.0000
  O   O22       1.0  0.8431  0.8365000000000001  0.8036000000000001  1.0000
  O   O23       1.0  0.8431  0.16349999999999992  0.8036000000000001  1.0000
  O   O24       1.0  0.15690000000000004  0.16349999999999992  0.19639999999999994  1.0000
  O   O25       1.0  0.4417  0.3801  0.2808  1.0000
  O   O26       1.0  0.5583000000000001  0.3801  0.7192000000000001  1.0000
  O   O27       1.0  0.5583000000000001  0.6199  0.7192000000000001  1.0000
  O   O28       1.0  0.4417  0.6199  0.2808  1.0000
  O   O29       1.0  0.9417  0.8801  0.2808  1.0000
  O   O30       1.0  0.058300000000000025  0.8801  0.7192000000000001  1.0000
  O   O31       1.0  0.058300000000000025  0.11990000000000002  0.7192000000000001  1.0000
  O   O32       1.0  0.9417  0.11990000000000002  0.2808  1.0000
  O   O33       1.0  0.6797  0.3767000000000001  0.48629999999999995  1.0000
  O   O34       1.0  0.32030000000000003  0.3767000000000001  0.5137  1.0000
  O   O35       1.0  0.32030000000000003  0.6233000000000001  0.5137  1.0000
  O   O36       1.0  0.6797  0.6233000000000001  0.48629999999999995  1.0000
  O   O37       1.0  0.17969999999999997  0.8767000000000001  0.48629999999999995  1.0000
  O   O38       1.0  0.8203  0.8767000000000001  0.5137  1.0000
  O   O39       1.0  0.8203  0.12329999999999998  0.5137  1.0000
  O   O40       1.0  0.17969999999999997  0.12329999999999998  0.48629999999999995  1.0000
  O   O41       1.0  0.75  0.25  0.0  1.0000
  O   O42       1.0  0.25  0.25  0.0  1.0000
  O   O43       1.0  0.25  0.7500000000000001  0.0  1.0000
  O   O44       1.0  0.75  0.7500000000000001  0.0  1.0000
  O   O45       1.0  0.7394  0.5  0.7133999999999998  1.0000
  O   O46       1.0  0.2606  0.5  0.2866  1.0000
  O   O47       1.0  0.23939999999999984  0.0  0.7133999999999998  1.0000
  O   O48       1.0  0.7606  0.0  0.2866  1.0000
