data_image0
_chemical_formula_structural       Ba24Cu160Te56S36
_chemical_formula_sum              "Ba24 Cu160 Te56 S36"
_cell_length_a       17.2364
_cell_length_b       17.2364
_cell_length_c       17.2364
_cell_angle_alpha    90.0
_cell_angle_beta     90.0
_cell_angle_gamma    90.0

_space_group_name_H-M_alt    "P 1"
_space_group_IT_number       1

loop_
  _space_group_symop_operation_xyz
  'x, y, z'

loop_
  _atom_site_type_symbol
  _atom_site_label
  _atom_site_symmetry_multiplicity
  _atom_site_fract_x
  _atom_site_fract_y
  _atom_site_fract_z
  _atom_site_occupancy
  Ba  Ba1       1.0  0.29213  0.0  0.0  1.0000
  Ba  Ba2       1.0  0.0  0.29213  0.0  1.0000
  Ba  Ba3       1.0  0.70787  0.0  0.0  1.0000
  Ba  Ba4       1.0  0.0  0.70787  0.0  1.0000
  Ba  Ba5       1.0  0.0  0.0  0.29213  1.0000
  Ba  Ba6       1.0  0.0  0.0  0.70787  1.0000
  Ba  Ba7       1.0  0.29213  0.5  0.5  1.0000
  Ba  Ba8       1.0  0.0  0.7921299999999999  0.5  1.0000
  Ba  Ba9       1.0  0.70787  0.5  0.5  1.0000
  Ba  Ba10      1.0  0.0  0.20786999999999997  0.5  1.0000
  Ba  Ba11      1.0  0.0  0.5  0.7921299999999999  1.0000
  Ba  Ba12      1.0  0.0  0.5  0.20786999999999997  1.0000
  Ba  Ba13      1.0  0.7921299999999999  0.0  0.5  1.0000
  Ba  Ba14      1.0  0.5  0.29213  0.5  1.0000
  Ba  Ba15      1.0  0.20786999999999997  0.0  0.5  1.0000
  Ba  Ba16      1.0  0.5  0.70787  0.5  1.0000
  Ba  Ba17      1.0  0.5  0.0  0.7921299999999999  1.0000
  Ba  Ba18      1.0  0.5  0.0  0.20786999999999997  1.0000
  Ba  Ba19      1.0  0.7921299999999999  0.5  0.0  1.0000
  Ba  Ba20      1.0  0.5  0.7921299999999999  0.0  1.0000
  Ba  Ba21      1.0  0.20786999999999997  0.5  0.0  1.0000
  Ba  Ba22      1.0  0.5  0.20786999999999997  0.0  1.0000
  Ba  Ba23      1.0  0.5  0.5  0.29213  1.0000
  Ba  Ba24      1.0  0.5  0.5  0.70787  1.0000
  Cu  Cu1       1.0  0.1995  0.1995  0.4166399999999999  0.9850
  Cu  Cu2       1.0  0.8005  0.1995  0.4166399999999999  0.9850
  Cu  Cu3       1.0  0.8005  0.8005  0.4166399999999999  0.9850
  Cu  Cu4       1.0  0.1995  0.8005  0.4166399999999999  0.9850
  Cu  Cu5       1.0  0.1995  0.8005  0.5833600000000001  0.9850
  Cu  Cu6       1.0  0.1995  0.1995  0.5833600000000001  0.9850
  Cu  Cu7       1.0  0.8005  0.1995  0.5833600000000001  0.9850
  Cu  Cu8       1.0  0.8005  0.8005  0.5833600000000001  0.9850
  Cu  Cu9       1.0  0.4166399999999999  0.1995  0.1995  0.9850
  Cu  Cu10      1.0  0.8005  0.4166399999999999  0.1995  0.9850
  Cu  Cu11      1.0  0.5833600000000001  0.8005  0.1995  0.9850
  Cu  Cu12      1.0  0.1995  0.5833600000000001  0.1995  0.9850
  Cu  Cu13      1.0  0.4166399999999999  0.8005  0.8005  0.9850
  Cu  Cu14      1.0  0.1995  0.4166399999999999  0.8005  0.9850
  Cu  Cu15      1.0  0.5833600000000001  0.1995  0.8005  0.9850
  Cu  Cu16      1.0  0.8005  0.5833600000000001  0.8005  0.9850
  Cu  Cu17      1.0  0.1995  0.4166399999999999  0.1995  0.9850
  Cu  Cu18      1.0  0.5833600000000001  0.8005  0.8005  0.9850
  Cu  Cu19      1.0  0.5833600000000001  0.1995  0.1995  0.9850
  Cu  Cu20      1.0  0.4166399999999999  0.1995  0.8005  0.9850
  Cu  Cu21      1.0  0.4166399999999999  0.8005  0.1995  0.9850
  Cu  Cu22      1.0  0.1995  0.5833600000000001  0.8005  0.9850
  Cu  Cu23      1.0  0.8005  0.5833600000000001  0.1995  0.9850
  Cu  Cu24      1.0  0.8005  0.4166399999999999  0.8005  0.9850
  Cu  Cu25      1.0  0.1995  0.6995  0.9166399999999999  0.9850
  Cu  Cu26      1.0  0.8005  0.6995  0.9166399999999999  0.9850
  Cu  Cu27      1.0  0.8005  0.3005  0.9166399999999999  0.9850
  Cu  Cu28      1.0  0.1995  0.3005  0.9166399999999999  0.9850
  Cu  Cu29      1.0  0.1995  0.3005  0.08336000000000003  0.9850
  Cu  Cu30      1.0  0.1995  0.6995  0.08336000000000003  0.9850
  Cu  Cu31      1.0  0.8005  0.6995  0.08336000000000003  0.9850
  Cu  Cu32      1.0  0.8005  0.3005  0.08336000000000003  0.9850
  Cu  Cu33      1.0  0.4166399999999999  0.6995  0.6995  0.9850
  Cu  Cu34      1.0  0.8005  0.9166399999999999  0.6995  0.9850
  Cu  Cu35      1.0  0.5833600000000001  0.3005  0.6995  0.9850
  Cu  Cu36      1.0  0.1995  0.08336000000000003  0.6995  0.9850
  Cu  Cu37      1.0  0.4166399999999999  0.3005  0.3005  0.9850
  Cu  Cu38      1.0  0.1995  0.9166399999999999  0.3005  0.9850
  Cu  Cu39      1.0  0.5833600000000001  0.6995  0.3005  0.9850
  Cu  Cu40      1.0  0.8005  0.08336000000000003  0.3005  0.9850
  Cu  Cu41      1.0  0.1995  0.9166399999999999  0.6995  0.9850
  Cu  Cu42      1.0  0.5833600000000001  0.3005  0.3005  0.9850
  Cu  Cu43      1.0  0.5833600000000001  0.6995  0.6995  0.9850
  Cu  Cu44      1.0  0.4166399999999999  0.6995  0.3005  0.9850
  Cu  Cu45      1.0  0.4166399999999999  0.3005  0.6995  0.9850
  Cu  Cu46      1.0  0.1995  0.08336000000000003  0.3005  0.9850
  Cu  Cu47      1.0  0.8005  0.08336000000000003  0.6995  0.9850
  Cu  Cu48      1.0  0.8005  0.9166399999999999  0.3005  0.9850
  Cu  Cu49      1.0  0.6995  0.1995  0.9166399999999999  0.9850
  Cu  Cu50      1.0  0.3005  0.1995  0.9166399999999999  0.9850
  Cu  Cu51      1.0  0.3005  0.8005  0.9166399999999999  0.9850
  Cu  Cu52      1.0  0.6995  0.8005  0.9166399999999999  0.9850
  Cu  Cu53      1.0  0.6995  0.8005  0.08336000000000003  0.9850
  Cu  Cu54      1.0  0.6995  0.1995  0.08336000000000003  0.9850
  Cu  Cu55      1.0  0.3005  0.1995  0.08336000000000003  0.9850
  Cu  Cu56      1.0  0.3005  0.8005  0.08336000000000003  0.9850
  Cu  Cu57      1.0  0.9166399999999999  0.1995  0.6995  0.9850
  Cu  Cu58      1.0  0.3005  0.4166399999999999  0.6995  0.9850
  Cu  Cu59      1.0  0.08336000000000003  0.8005  0.6995  0.9850
  Cu  Cu60      1.0  0.6995  0.5833600000000001  0.6995  0.9850
  Cu  Cu61      1.0  0.9166399999999999  0.8005  0.3005  0.9850
  Cu  Cu62      1.0  0.6995  0.4166399999999999  0.3005  0.9850
  Cu  Cu63      1.0  0.08336000000000003  0.1995  0.3005  0.9850
  Cu  Cu64      1.0  0.3005  0.5833600000000001  0.3005  0.9850
  Cu  Cu65      1.0  0.6995  0.4166399999999999  0.6995  0.9850
  Cu  Cu66      1.0  0.08336000000000003  0.8005  0.3005  0.9850
  Cu  Cu67      1.0  0.08336000000000003  0.1995  0.6995  0.9850
  Cu  Cu68      1.0  0.9166399999999999  0.1995  0.3005  0.9850
  Cu  Cu69      1.0  0.9166399999999999  0.8005  0.6995  0.9850
  Cu  Cu70      1.0  0.6995  0.5833600000000001  0.3005  0.9850
  Cu  Cu71      1.0  0.3005  0.5833600000000001  0.6995  0.9850
  Cu  Cu72      1.0  0.3005  0.4166399999999999  0.3005  0.9850
  Cu  Cu73      1.0  0.6995  0.6995  0.4166399999999999  0.9850
  Cu  Cu74      1.0  0.3005  0.6995  0.4166399999999999  0.9850
  Cu  Cu75      1.0  0.3005  0.3005  0.4166399999999999  0.9850
  Cu  Cu76      1.0  0.6995  0.3005  0.4166399999999999  0.9850
  Cu  Cu77      1.0  0.6995  0.3005  0.5833600000000001  0.9850
  Cu  Cu78      1.0  0.6995  0.6995  0.5833600000000001  0.9850
  Cu  Cu79      1.0  0.3005  0.6995  0.5833600000000001  0.9850
  Cu  Cu80      1.0  0.3005  0.3005  0.5833600000000001  0.9850
  Cu  Cu81      1.0  0.9166399999999999  0.6995  0.1995  0.9850
  Cu  Cu82      1.0  0.3005  0.9166399999999999  0.1995  0.9850
  Cu  Cu83      1.0  0.08336000000000003  0.3005  0.1995  0.9850
  Cu  Cu84      1.0  0.6995  0.08336000000000003  0.1995  0.9850
  Cu  Cu85      1.0  0.9166399999999999  0.3005  0.8005  0.9850
  Cu  Cu86      1.0  0.6995  0.9166399999999999  0.8005  0.9850
  Cu  Cu87      1.0  0.08336000000000003  0.6995  0.8005  0.9850
  Cu  Cu88      1.0  0.3005  0.08336000000000003  0.8005  0.9850
  Cu  Cu89      1.0  0.6995  0.9166399999999999  0.1995  0.9850
  Cu  Cu90      1.0  0.08336000000000003  0.3005  0.8005  0.9850
  Cu  Cu91      1.0  0.08336000000000003  0.6995  0.1995  0.9850
  Cu  Cu92      1.0  0.9166399999999999  0.6995  0.8005  0.9850
  Cu  Cu93      1.0  0.9166399999999999  0.3005  0.1995  0.9850
  Cu  Cu94      1.0  0.6995  0.08336000000000003  0.8005  0.9850
  Cu  Cu95      1.0  0.3005  0.08336000000000003  0.1995  0.9850
  Cu  Cu96      1.0  0.3005  0.9166399999999999  0.8005  0.9850
  Cu  Cu97      1.0  0.07445999999999998  0.07445999999999998  0.07445999999999998  0.5000
  Cu  Cu98      1.0  0.9255399999999999  0.07445999999999998  0.07445999999999998  0.5000
  Cu  Cu99      1.0  0.9255399999999999  0.9255399999999999  0.07445999999999998  0.5000
  Cu  Cu100     1.0  0.07445999999999998  0.9255399999999999  0.07445999999999998  0.5000
  Cu  Cu101     1.0  0.07445999999999998  0.9255399999999999  0.9255399999999999  0.5000
  Cu  Cu102     1.0  0.07445999999999998  0.07445999999999998  0.9255399999999999  0.5000
  Cu  Cu103     1.0  0.9255399999999999  0.07445999999999998  0.9255399999999999  0.5000
  Cu  Cu104     1.0  0.9255399999999999  0.9255399999999999  0.9255399999999999  0.5000
  Cu  Cu105     1.0  0.07445999999999998  0.57446  0.57446  0.5000
  Cu  Cu106     1.0  0.9255399999999999  0.57446  0.57446  0.5000
  Cu  Cu107     1.0  0.9255399999999999  0.42554  0.57446  0.5000
  Cu  Cu108     1.0  0.07445999999999998  0.42554  0.57446  0.5000
  Cu  Cu109     1.0  0.07445999999999998  0.42554  0.42554  0.5000
  Cu  Cu110     1.0  0.07445999999999998  0.57446  0.42554  0.5000
  Cu  Cu111     1.0  0.9255399999999999  0.57446  0.42554  0.5000
  Cu  Cu112     1.0  0.9255399999999999  0.42554  0.42554  0.5000
  Cu  Cu113     1.0  0.57446  0.07445999999999998  0.57446  0.5000
  Cu  Cu114     1.0  0.42554  0.07445999999999998  0.57446  0.5000
  Cu  Cu115     1.0  0.42554  0.9255399999999999  0.57446  0.5000
  Cu  Cu116     1.0  0.57446  0.9255399999999999  0.57446  0.5000
  Cu  Cu117     1.0  0.57446  0.9255399999999999  0.42554  0.5000
  Cu  Cu118     1.0  0.57446  0.07445999999999998  0.42554  0.5000
  Cu  Cu119     1.0  0.42554  0.07445999999999998  0.42554  0.5000
  Cu  Cu120     1.0  0.42554  0.9255399999999999  0.42554  0.5000
  Cu  Cu121     1.0  0.57446  0.57446  0.07445999999999998  0.5000
  Cu  Cu122     1.0  0.42554  0.57446  0.07445999999999998  0.5000
  Cu  Cu123     1.0  0.42554  0.42554  0.07445999999999998  0.5000
  Cu  Cu124     1.0  0.57446  0.42554  0.07445999999999998  0.5000
  Cu  Cu125     1.0  0.57446  0.42554  0.9255399999999999  0.5000
  Cu  Cu126     1.0  0.57446  0.57446  0.9255399999999999  0.5000
  Cu  Cu127     1.0  0.42554  0.57446  0.9255399999999999  0.5000
  Cu  Cu128     1.0  0.42554  0.42554  0.9255399999999999  0.5000
  Cu  Cu129     1.0  0.16297  0.16297  0.16297  0.5560
  Cu  Cu130     1.0  0.8370299999999998  0.16297  0.16297  0.5560
  Cu  Cu131     1.0  0.8370299999999998  0.8370299999999998  0.16297  0.5560
  Cu  Cu132     1.0  0.16297  0.8370299999999998  0.16297  0.5560
  Cu  Cu133     1.0  0.16297  0.8370299999999998  0.8370299999999998  0.5560
  Cu  Cu134     1.0  0.16297  0.16297  0.8370299999999998  0.5560
  Cu  Cu135     1.0  0.8370299999999998  0.16297  0.8370299999999998  0.5560
  Cu  Cu136     1.0  0.8370299999999998  0.8370299999999998  0.8370299999999998  0.5560
  Cu  Cu137     1.0  0.16297  0.6629700000000001  0.6629700000000001  0.5560
  Cu  Cu138     1.0  0.8370299999999998  0.6629700000000001  0.6629700000000001  0.5560
  Cu  Cu139     1.0  0.8370299999999998  0.33703  0.6629700000000001  0.5560
  Cu  Cu140     1.0  0.16297  0.33703  0.6629700000000001  0.5560
  Cu  Cu141     1.0  0.16297  0.33703  0.33703  0.5560
  Cu  Cu142     1.0  0.16297  0.6629700000000001  0.33703  0.5560
  Cu  Cu143     1.0  0.8370299999999998  0.6629700000000001  0.33703  0.5560
  Cu  Cu144     1.0  0.8370299999999998  0.33703  0.33703  0.5560
  Cu  Cu145     1.0  0.6629700000000001  0.16297  0.6629700000000001  0.5560
  Cu  Cu146     1.0  0.33703  0.16297  0.6629700000000001  0.5560
  Cu  Cu147     1.0  0.33703  0.8370299999999998  0.6629700000000001  0.5560
  Cu  Cu148     1.0  0.6629700000000001  0.8370299999999998  0.6629700000000001  0.5560
  Cu  Cu149     1.0  0.6629700000000001  0.8370299999999998  0.33703  0.5560
  Cu  Cu150     1.0  0.6629700000000001  0.16297  0.33703  0.5560
  Cu  Cu151     1.0  0.33703  0.16297  0.33703  0.5560
  Cu  Cu152     1.0  0.33703  0.8370299999999998  0.33703  0.5560
  Cu  Cu153     1.0  0.6629700000000001  0.6629700000000001  0.16297  0.5560
  Cu  Cu154     1.0  0.33703  0.6629700000000001  0.16297  0.5560
  Cu  Cu155     1.0  0.33703  0.33703  0.16297  0.5560
  Cu  Cu156     1.0  0.6629700000000001  0.33703  0.16297  0.5560
  Cu  Cu157     1.0  0.6629700000000001  0.33703  0.8370299999999998  0.5560
  Cu  Cu158     1.0  0.6629700000000001  0.6629700000000001  0.8370299999999998  0.5560
  Cu  Cu159     1.0  0.33703  0.6629700000000001  0.8370299999999998  0.5560
  Cu  Cu160     1.0  0.33703  0.33703  0.8370299999999998  0.5560
  Te  Te1       1.0  0.0  0.16968999999999998  0.16968999999999998  0.9930
  Te  Te2       1.0  0.8303099999999999  0.0  0.16968999999999998  0.9930
  Te  Te3       1.0  0.0  0.8303099999999999  0.16968999999999998  0.9930
  Te  Te4       1.0  0.16968999999999998  0.0  0.16968999999999998  0.9930
  Te  Te5       1.0  0.0  0.8303099999999999  0.8303099999999999  0.9930
  Te  Te6       1.0  0.16968999999999998  0.0  0.8303099999999999  0.9930
  Te  Te7       1.0  0.0  0.16968999999999998  0.8303099999999999  0.9930
  Te  Te8       1.0  0.8303099999999999  0.0  0.8303099999999999  0.9930
  Te  Te9       1.0  0.16968999999999998  0.16968999999999998  0.0  0.9930
  Te  Te10      1.0  0.8303099999999999  0.8303099999999999  0.0  0.9930
  Te  Te11      1.0  0.8303099999999999  0.16968999999999998  0.0  0.9930
  Te  Te12      1.0  0.16968999999999998  0.8303099999999999  0.0  0.9930
  Te  Te13      1.0  0.0  0.66969  0.66969  0.9930
  Te  Te14      1.0  0.8303099999999999  0.5  0.66969  0.9930
  Te  Te15      1.0  0.0  0.33031  0.66969  0.9930
  Te  Te16      1.0  0.16968999999999998  0.5  0.66969  0.9930
  Te  Te17      1.0  0.0  0.33031  0.33031  0.9930
  Te  Te18      1.0  0.16968999999999998  0.5  0.33031  0.9930
  Te  Te19      1.0  0.0  0.66969  0.33031  0.9930
  Te  Te20      1.0  0.8303099999999999  0.5  0.33031  0.9930
  Te  Te21      1.0  0.16968999999999998  0.66969  0.5  0.9930
  Te  Te22      1.0  0.8303099999999999  0.33031  0.5  0.9930
  Te  Te23      1.0  0.8303099999999999  0.66969  0.5  0.9930
  Te  Te24      1.0  0.16968999999999998  0.33031  0.5  0.9930
  Te  Te25      1.0  0.5  0.16968999999999998  0.66969  0.9930
  Te  Te26      1.0  0.33031  0.0  0.66969  0.9930
  Te  Te27      1.0  0.5  0.8303099999999999  0.66969  0.9930
  Te  Te28      1.0  0.66969  0.0  0.66969  0.9930
  Te  Te29      1.0  0.5  0.8303099999999999  0.33031  0.9930
  Te  Te30      1.0  0.66969  0.0  0.33031  0.9930
  Te  Te31      1.0  0.5  0.16968999999999998  0.33031  0.9930
  Te  Te32      1.0  0.33031  0.0  0.33031  0.9930
  Te  Te33      1.0  0.66969  0.16968999999999998  0.5  0.9930
  Te  Te34      1.0  0.33031  0.8303099999999999  0.5  0.9930
  Te  Te35      1.0  0.33031  0.16968999999999998  0.5  0.9930
  Te  Te36      1.0  0.66969  0.8303099999999999  0.5  0.9930
  Te  Te37      1.0  0.5  0.66969  0.16968999999999998  0.9930
  Te  Te38      1.0  0.33031  0.5  0.16968999999999998  0.9930
  Te  Te39      1.0  0.5  0.33031  0.16968999999999998  0.9930
  Te  Te40      1.0  0.66969  0.5  0.16968999999999998  0.9930
  Te  Te41      1.0  0.5  0.33031  0.8303099999999999  0.9930
  Te  Te42      1.0  0.66969  0.5  0.8303099999999999  0.9930
  Te  Te43      1.0  0.5  0.66969  0.8303099999999999  0.9930
  Te  Te44      1.0  0.33031  0.5  0.8303099999999999  0.9930
  Te  Te45      1.0  0.66969  0.66969  0.0  0.9930
  Te  Te46      1.0  0.33031  0.33031  0.0  0.9930
  Te  Te47      1.0  0.33031  0.66969  0.0  0.9930
  Te  Te48      1.0  0.66969  0.33031  0.0  0.9930
  Te  Te49      1.0  0.25  0.25  0.25  1.0000
  Te  Te50      1.0  0.7499999999999999  0.25  0.25  1.0000
  Te  Te51      1.0  0.7499999999999999  0.7499999999999999  0.25  1.0000
  Te  Te52      1.0  0.25  0.7499999999999999  0.25  1.0000
  Te  Te53      1.0  0.25  0.7499999999999999  0.7499999999999999  1.0000
  Te  Te54      1.0  0.25  0.25  0.7499999999999999  1.0000
  Te  Te55      1.0  0.7499999999999999  0.25  0.7499999999999999  1.0000
  Te  Te56      1.0  0.7499999999999999  0.7499999999999999  0.7499999999999999  1.0000
  S   S1        1.0  0.3906  0.3906  0.3906  1.0000
  S   S2        1.0  0.6093999999999999  0.3906  0.3906  1.0000
  S   S3        1.0  0.6093999999999999  0.6093999999999999  0.3906  1.0000
  S   S4        1.0  0.3906  0.6093999999999999  0.3906  1.0000
  S   S5        1.0  0.3906  0.6093999999999999  0.6093999999999999  1.0000
  S   S6        1.0  0.3906  0.3906  0.6093999999999999  1.0000
  S   S7        1.0  0.6093999999999999  0.3906  0.6093999999999999  1.0000
  S   S8        1.0  0.6093999999999999  0.6093999999999999  0.6093999999999999  1.0000
  S   S9        1.0  0.3906  0.8906000000000001  0.8906000000000001  1.0000
  S   S10       1.0  0.6093999999999999  0.8906000000000001  0.8906000000000001  1.0000
  S   S11       1.0  0.6093999999999999  0.10939999999999998  0.8906000000000001  1.0000
  S   S12       1.0  0.3906  0.10939999999999998  0.8906000000000001  1.0000
  S   S13       1.0  0.3906  0.10939999999999998  0.10939999999999998  1.0000
  S   S14       1.0  0.3906  0.8906000000000001  0.10939999999999998  1.0000
  S   S15       1.0  0.6093999999999999  0.8906000000000001  0.10939999999999998  1.0000
  S   S16       1.0  0.6093999999999999  0.10939999999999998  0.10939999999999998  1.0000
  S   S17       1.0  0.8906000000000001  0.3906  0.8906000000000001  1.0000
  S   S18       1.0  0.10939999999999998  0.3906  0.8906000000000001  1.0000
  S   S19       1.0  0.10939999999999998  0.6093999999999999  0.8906000000000001  1.0000
  S   S20       1.0  0.8906000000000001  0.6093999999999999  0.8906000000000001  1.0000
  S   S21       1.0  0.8906000000000001  0.6093999999999999  0.10939999999999998  1.0000
  S   S22       1.0  0.8906000000000001  0.3906  0.10939999999999998  1.0000
  S   S23       1.0  0.10939999999999998  0.3906  0.10939999999999998  1.0000
  S   S24       1.0  0.10939999999999998  0.6093999999999999  0.10939999999999998  1.0000
  S   S25       1.0  0.8906000000000001  0.8906000000000001  0.3906  1.0000
  S   S26       1.0  0.10939999999999998  0.8906000000000001  0.3906  1.0000
  S   S27       1.0  0.10939999999999998  0.10939999999999998  0.3906  1.0000
  S   S28       1.0  0.8906000000000001  0.10939999999999998  0.3906  1.0000
  S   S29       1.0  0.8906000000000001  0.10939999999999998  0.6093999999999999  1.0000
  S   S30       1.0  0.8906000000000001  0.8906000000000001  0.6093999999999999  1.0000
  S   S31       1.0  0.10939999999999998  0.8906000000000001  0.6093999999999999  1.0000
  S   S32       1.0  0.10939999999999998  0.10939999999999998  0.6093999999999999  1.0000
  S   S33       1.0  0.0  0.0  0.0  0.8000
  S   S34       1.0  0.0  0.5  0.5  0.8000
  S   S35       1.0  0.5  0.0  0.5  0.8000
  S   S36       1.0  0.5  0.5  0.0  0.8000
  S   S37       1.0  0.0  0.16968999999999998  0.16968999999999998  0.0100
  S   S38       1.0  0.8303099999999999  0.0  0.16968999999999998  0.0100
  S   S39       1.0  0.0  0.8303099999999999  0.16968999999999998  0.0100
  S   S40       1.0  0.16968999999999998  0.0  0.16968999999999998  0.0100
  S   S41       1.0  0.0  0.8303099999999999  0.8303099999999999  0.0100
  S   S42       1.0  0.16968999999999998  0.0  0.8303099999999999  0.0100
  S   S43       1.0  0.0  0.16968999999999998  0.8303099999999999  0.0100
  S   S44       1.0  0.8303099999999999  0.0  0.8303099999999999  0.0100
  S   S45       1.0  0.16968999999999998  0.16968999999999998  0.0  0.0100
  S   S46       1.0  0.8303099999999999  0.8303099999999999  0.0  0.0100
  S   S47       1.0  0.8303099999999999  0.16968999999999998  0.0  0.0100
  S   S48       1.0  0.16968999999999998  0.8303099999999999  0.0  0.0100
  S   S49       1.0  0.0  0.66969  0.66969  0.0100
  S   S50       1.0  0.8303099999999999  0.5  0.66969  0.0100
  S   S51       1.0  0.0  0.33031  0.66969  0.0100
  S   S52       1.0  0.16968999999999998  0.5  0.66969  0.0100
  S   S53       1.0  0.0  0.33031  0.33031  0.0100
  S   S54       1.0  0.16968999999999998  0.5  0.33031  0.0100
  S   S55       1.0  0.0  0.66969  0.33031  0.0100
  S   S56       1.0  0.8303099999999999  0.5  0.33031  0.0100
  S   S57       1.0  0.16968999999999998  0.66969  0.5  0.0100
  S   S58       1.0  0.8303099999999999  0.33031  0.5  0.0100
  S   S59       1.0  0.8303099999999999  0.66969  0.5  0.0100
  S   S60       1.0  0.16968999999999998  0.33031  0.5  0.0100
  S   S61       1.0  0.5  0.16968999999999998  0.66969  0.0100
  S   S62       1.0  0.33031  0.0  0.66969  0.0100
  S   S63       1.0  0.5  0.8303099999999999  0.66969  0.0100
  S   S64       1.0  0.66969  0.0  0.66969  0.0100
  S   S65       1.0  0.5  0.8303099999999999  0.33031  0.0100
  S   S66       1.0  0.66969  0.0  0.33031  0.0100
  S   S67       1.0  0.5  0.16968999999999998  0.33031  0.0100
  S   S68       1.0  0.33031  0.0  0.33031  0.0100
  S   S69       1.0  0.66969  0.16968999999999998  0.5  0.0100
  S   S70       1.0  0.33031  0.8303099999999999  0.5  0.0100
  S   S71       1.0  0.33031  0.16968999999999998  0.5  0.0100
  S   S72       1.0  0.66969  0.8303099999999999  0.5  0.0100
  S   S73       1.0  0.5  0.66969  0.16968999999999998  0.0100
  S   S74       1.0  0.33031  0.5  0.16968999999999998  0.0100
  S   S75       1.0  0.5  0.33031  0.16968999999999998  0.0100
  S   S76       1.0  0.66969  0.5  0.16968999999999998  0.0100
  S   S77       1.0  0.5  0.33031  0.8303099999999999  0.0100
  S   S78       1.0  0.66969  0.5  0.8303099999999999  0.0100
  S   S79       1.0  0.5  0.66969  0.8303099999999999  0.0100
  S   S80       1.0  0.33031  0.5  0.8303099999999999  0.0100
  S   S81       1.0  0.66969  0.66969  0.0  0.0100
  S   S82       1.0  0.33031  0.33031  0.0  0.0100
  S   S83       1.0  0.33031  0.66969  0.0  0.0100
  S   S84       1.0  0.66969  0.33031  0.0  0.0100
  Te  Te57      1.0  0.0  0.0  0.0  0.1950
  Te  Te58      1.0  0.0  0.5  0.5  0.1950
  Te  Te59      1.0  0.5  0.0  0.5  0.1950
  Te  Te60      1.0  0.5  0.5  0.0  0.1950
