data_image0
_chemical_formula_structural       U2O18C8O8
_chemical_formula_sum              "U2 O26 C8"
_cell_length_a       8.856
_cell_length_b       8.856
_cell_length_c       7.896
_cell_angle_alpha    90.0
_cell_angle_beta     90.0
_cell_angle_gamma    90.0

_space_group_name_H-M_alt    "P 1"
_space_group_IT_number       1

loop_
  _space_group_symop_operation_xyz
  'x, y, z'

loop_
  _atom_site_type_symbol
  _atom_site_label
  _atom_site_symmetry_multiplicity
  _atom_site_fract_x
  _atom_site_fract_y
  _atom_site_fract_z
  _atom_site_occupancy
  U   U1        1.0  0.25  0.25  0.9300600000000002  0.5000
  U   U2        1.0  0.75  0.75  0.06993999999999989  0.5000
  O   O1        1.0  0.25  0.25  0.6245  1.0000
  O   O2        1.0  0.75  0.75  0.3755  1.0000
  O   O3        1.0  0.0414  0.1635  0.11529999999999997  1.0000
  O   O4        1.0  0.4586  0.3365000000000001  0.11529999999999997  1.0000
  O   O5        1.0  0.3365000000000001  0.0414  0.11529999999999997  1.0000
  O   O6        1.0  0.1635  0.4586  0.11529999999999997  1.0000
  O   O7        1.0  0.9586000000000001  0.8365000000000001  0.8847  1.0000
  O   O8        1.0  0.5414000000000001  0.6635  0.8847  1.0000
  O   O9        1.0  0.6635  0.9586000000000001  0.8847  1.0000
  O   O10       1.0  0.8365000000000001  0.5414000000000001  0.8847  1.0000
  O   O11       1.0  0.12140000000000001  0.023700000000000006  0.8291  1.0000
  O   O12       1.0  0.3786  0.47630000000000006  0.8291  1.0000
  O   O13       1.0  0.47630000000000006  0.12140000000000001  0.8291  1.0000
  O   O14       1.0  0.023700000000000006  0.3786  0.8291  1.0000
  O   O15       1.0  0.8786000000000002  0.9763  0.17090000000000008  1.0000
  O   O16       1.0  0.6214  0.5237000000000002  0.17090000000000008  1.0000
  O   O17       1.0  0.5237000000000002  0.8786000000000002  0.17090000000000008  1.0000
  O   O18       1.0  0.9763  0.6214  0.17090000000000008  1.0000
  C   C1        1.0  0.9782000000000001  0.0393  0.08289999999999997  1.0000
  C   C2        1.0  0.5218  0.46070000000000005  0.08289999999999997  1.0000
  C   C3        1.0  0.46070000000000005  0.9782000000000001  0.08289999999999997  1.0000
  C   C4        1.0  0.0393  0.5218  0.08289999999999997  1.0000
  C   C5        1.0  0.021800000000000007  0.9607000000000001  0.9171  1.0000
  C   C6        1.0  0.47820000000000007  0.5393  0.9171  1.0000
  C   C7        1.0  0.5393  0.021800000000000007  0.9171  1.0000
  C   C8        1.0  0.9607000000000001  0.47820000000000007  0.9171  1.0000
  O   O19       1.0  0.9659  0.23990000000000003  0.4541000000000001  0.8750
  O   O20       1.0  0.5341  0.2601  0.4541000000000001  0.8750
  O   O21       1.0  0.2601  0.9659  0.4541000000000001  0.8750
  O   O22       1.0  0.23990000000000003  0.5341  0.4541000000000001  0.8750
  O   O23       1.0  0.034100000000000026  0.7601  0.5459  0.8750
  O   O24       1.0  0.46590000000000004  0.7399  0.5459  0.8750
  O   O25       1.0  0.7399  0.034100000000000026  0.5459  0.8750
  O   O26       1.0  0.7601  0.46590000000000004  0.5459  0.8750
  Pu  Pu1       1.0  0.25  0.25  0.9300600000000002  0.5000
  Pu  Pu2       1.0  0.75  0.75  0.06993999999999989  0.5000
  N   N1        1.0  0.9659  0.23990000000000003  0.4541000000000001  0.1250
  N   N2        1.0  0.5341  0.2601  0.4541000000000001  0.1250
  N   N3        1.0  0.2601  0.9659  0.4541000000000001  0.1250
  N   N4        1.0  0.23990000000000003  0.5341  0.4541000000000001  0.1250
  N   N5        1.0  0.034100000000000026  0.7601  0.5459  0.1250
  N   N6        1.0  0.46590000000000004  0.7399  0.5459  0.1250
  N   N7        1.0  0.7399  0.034100000000000026  0.5459  0.1250
  N   N8        1.0  0.7601  0.46590000000000004  0.5459  0.1250
