data_image0
_chemical_formula_structural       Nb18V4O50
_chemical_formula_sum              "Nb18 V4 O50"
_cell_length_a       15.7726
_cell_length_b       15.7726
_cell_length_c       3.8399
_cell_angle_alpha    90.0
_cell_angle_beta     90.0
_cell_angle_gamma    90.0

_space_group_name_H-M_alt    "P 1"
_space_group_IT_number       1

loop_
  _space_group_symop_operation_xyz
  'x, y, z'

loop_
  _atom_site_type_symbol
  _atom_site_label
  _atom_site_symmetry_multiplicity
  _atom_site_fract_x
  _atom_site_fract_y
  _atom_site_fract_z
  _atom_site_occupancy
  Nb  Nb1       1.0  0.0  0.0  0.0  1.0000
  Nb  Nb2       1.0  0.5  0.5  0.49999999999999994  1.0000
  Nb  Nb3       1.0  0.78149  0.10593  0.0  1.0000
  Nb  Nb4       1.0  0.21850999999999998  0.89407  0.0  1.0000
  Nb  Nb5       1.0  0.89407  0.78149  0.0  1.0000
  Nb  Nb6       1.0  0.10593  0.21850999999999998  0.0  1.0000
  Nb  Nb7       1.0  0.28149  0.60593  0.49999999999999994  1.0000
  Nb  Nb8       1.0  0.7185100000000001  0.39407000000000003  0.49999999999999994  1.0000
  Nb  Nb9       1.0  0.39407000000000003  0.28149  0.49999999999999994  1.0000
  Nb  Nb10      1.0  0.60593  0.7185100000000001  0.49999999999999994  1.0000
  Nb  Nb11      1.0  0.8830100000000002  0.32601  0.0  1.0000
  Nb  Nb12      1.0  0.11698999999999993  0.67399  0.0  1.0000
  Nb  Nb13      1.0  0.67399  0.8830100000000002  0.0  1.0000
  Nb  Nb14      1.0  0.32601  0.11698999999999993  0.0  1.0000
  Nb  Nb15      1.0  0.3830100000000001  0.82601  0.49999999999999994  1.0000
  Nb  Nb16      1.0  0.6169899999999999  0.17398999999999998  0.49999999999999994  1.0000
  Nb  Nb17      1.0  0.17398999999999998  0.3830100000000001  0.49999999999999994  1.0000
  Nb  Nb18      1.0  0.82601  0.6169899999999999  0.49999999999999994  1.0000
  V   V1        1.0  0.0  0.5  0.7499999999999998  0.5000
  V   V2        1.0  0.5  0.0  0.7499999999999998  0.5000
  V   V3        1.0  0.5  0.0  0.24999999999999997  0.5000
  V   V4        1.0  0.0  0.5  0.24999999999999997  0.5000
  O   O1        1.0  0.8838  0.0515  0.0  1.0000
  O   O2        1.0  0.11619999999999998  0.9485  0.0  1.0000
  O   O3        1.0  0.9485  0.8838  0.0  1.0000
  O   O4        1.0  0.0515  0.11619999999999998  0.0  1.0000
  O   O5        1.0  0.3838  0.5515  0.49999999999999994  1.0000
  O   O6        1.0  0.6162  0.44850000000000007  0.49999999999999994  1.0000
  O   O7        1.0  0.44850000000000007  0.3838  0.49999999999999994  1.0000
  O   O8        1.0  0.5515  0.6162  0.49999999999999994  1.0000
  O   O9        1.0  0.8233000000000003  0.2169  0.0  1.0000
  O   O10       1.0  0.17669999999999986  0.7831  0.0  1.0000
  O   O11       1.0  0.7831  0.8233000000000003  0.0  1.0000
  O   O12       1.0  0.2169  0.17669999999999986  0.0  1.0000
  O   O13       1.0  0.32330000000000014  0.7169000000000001  0.49999999999999994  1.0000
  O   O14       1.0  0.6766999999999999  0.2831  0.49999999999999994  1.0000
  O   O15       1.0  0.2831  0.32330000000000014  0.49999999999999994  1.0000
  O   O16       1.0  0.7169000000000001  0.6766999999999999  0.49999999999999994  1.0000
  O   O17       1.0  0.7479  0.1109  0.4999999999999999  1.0000
  O   O18       1.0  0.2521  0.8891  0.4999999999999999  1.0000
  O   O19       1.0  0.8891  0.7479  0.4999999999999999  1.0000
  O   O20       1.0  0.1109  0.2521  0.4999999999999999  1.0000
  O   O21       1.0  0.2479  0.6109  0.0  1.0000
  O   O22       1.0  0.7521000000000001  0.38910000000000006  0.0  1.0000
  O   O23       1.0  0.38910000000000006  0.2479  0.0  1.0000
  O   O24       1.0  0.6109  0.7521000000000001  0.0  1.0000
  O   O25       1.0  0.7185000000000002  0.9875  0.0  1.0000
  O   O26       1.0  0.2814999999999999  0.0125  0.0  1.0000
  O   O27       1.0  0.0125  0.7185000000000002  0.0  1.0000
  O   O28       1.0  0.9875  0.2814999999999999  0.0  1.0000
  O   O29       1.0  0.21850000000000017  0.4875  0.49999999999999994  1.0000
  O   O30       1.0  0.7814999999999999  0.5125  0.49999999999999994  1.0000
  O   O31       1.0  0.5125  0.21850000000000017  0.49999999999999994  1.0000
  O   O32       1.0  0.4875  0.7814999999999999  0.49999999999999994  1.0000
  O   O33       1.0  0.6482000000000001  0.1572  0.0  1.0000
  O   O34       1.0  0.3517999999999999  0.8428000000000001  0.0  1.0000
  O   O35       1.0  0.8428000000000001  0.6482000000000001  0.0  1.0000
  O   O36       1.0  0.1572  0.3517999999999999  0.0  1.0000
  O   O37       1.0  0.1482000000000001  0.6572  0.49999999999999994  1.0000
  O   O38       1.0  0.8518  0.3428  0.49999999999999994  1.0000
  O   O39       1.0  0.3428  0.1482000000000001  0.49999999999999994  1.0000
  O   O40       1.0  0.6572  0.8518  0.49999999999999994  1.0000
  O   O41       1.0  0.0  0.0  0.4999999999999999  1.0000
  O   O42       1.0  0.5  0.5  0.0  1.0000
  O   O43       1.0  0.9251000000000003  0.4473  0.0  1.0000
  O   O44       1.0  0.07489999999999986  0.5527  0.0  1.0000
  O   O45       1.0  0.5527  0.9251000000000003  0.0  1.0000
  O   O46       1.0  0.4473  0.07489999999999986  0.0  1.0000
  O   O47       1.0  0.42510000000000003  0.9473  0.49999999999999994  1.0000
  O   O48       1.0  0.5748999999999999  0.052700000000000025  0.49999999999999994  1.0000
  O   O49       1.0  0.052700000000000025  0.42510000000000003  0.49999999999999994  1.0000
  O   O50       1.0  0.9473  0.5748999999999999  0.49999999999999994  1.0000
