data_image0
_chemical_formula_structural       Nd2O3
_chemical_formula_sum              "Nd2 O3"
_cell_length_a       3.84
_cell_length_b       3.84
_cell_length_c       6.01
_cell_angle_alpha    90.0
_cell_angle_beta     90.0
_cell_angle_gamma    119.99999999999999

_space_group_name_H-M_alt    "P 1"
_space_group_IT_number       1

loop_
  _space_group_symop_operation_xyz
  'x, y, z'

loop_
  _atom_site_type_symbol
  _atom_site_label
  _atom_site_symmetry_multiplicity
  _atom_site_fract_x
  _atom_site_fract_y
  _atom_site_fract_z
  _atom_site_occupancy
  Nd  Nd1       1.0  0.33329999999999993  0.6666999999999998  0.25  1.0000
  Nd  Nd2       1.0  0.6666999999999998  0.3332999999999999  0.7500000000000001  1.0000
  O   O1        1.0  0.25  0.24999999999999994  0.0  1.0000
  O   O2        1.0  0.75  2.775557561562891e-17  0.0  1.0000
  O   O3        1.0  0.9999999999999999  0.7499999999999999  0.0  1.0000
