data_image0
_chemical_formula_structural       K3Al6Si12O36H3
_chemical_formula_sum              "K3 Al6 Si12 O36 H3"
_cell_length_a       5.1963
_cell_length_b       5.1963
_cell_length_c       29.97049
_cell_angle_alpha    90.0
_cell_angle_beta     90.0
_cell_angle_gamma    119.99999999999999

_space_group_name_H-M_alt    "P 1"
_space_group_IT_number       1

loop_
  _space_group_symop_operation_xyz
  'x, y, z'

loop_
  _atom_site_type_symbol
  _atom_site_label
  _atom_site_symmetry_multiplicity
  _atom_site_fract_x
  _atom_site_fract_y
  _atom_site_fract_z
  _atom_site_occupancy
  K   K1        1.0  0.13300000000000006  0.867  0.8333  1.0000
  K   K2        1.0  0.133  0.266  0.16663333333333344  1.0000
  K   K3        1.0  0.7340000000000001  0.867  0.4999666666666667  1.0000
  Al  Al1       1.0  0.7700000000000001  0.23000000000000004  0.3333  1.0000
  Al  Al2       1.0  0.7700000000000001  0.5399999999999999  0.6666333333333333  1.0000
  Al  Al3       1.0  0.46000000000000013  0.23000000000000004  0.9999666666666667  1.0000
  Al  Al4       1.0  0.10100000000000002  0.899  0.3333  1.0000
  Al  Al5       1.0  0.10100000000000002  0.202  0.6666333333333333  1.0000
  Al  Al6       1.0  0.798  0.899  0.9999666666666667  1.0000
  Si  Si1       1.0  0.7940000000000003  0.204  0.9103000000000001  0.5000
  Si  Si2       1.0  0.7960000000000002  0.5900000000000003  0.24363333333333334  0.5000
  Si  Si3       1.0  0.40999999999999986  0.20599999999999985  0.5769666666666667  0.5000
  Si  Si4       1.0  0.7940000000000003  0.5900000000000003  0.08970000000000003  0.5000
  Si  Si5       1.0  0.7960000000000002  0.20599999999999985  0.7563666666666666  0.5000
  Si  Si6       1.0  0.40999999999999986  0.204  0.4230333333333334  0.5000
  Si  Si7       1.0  0.4670000000000001  0.5480000000000002  0.9103000000000001  1.0000
  Si  Si8       1.0  0.4519999999999999  0.9189999999999999  0.24363333333333334  1.0000
  Si  Si9       1.0  0.0810000000000001  0.5329999999999999  0.5769666666666667  1.0000
  Si  Si10      1.0  0.4670000000000001  0.9189999999999999  0.08970000000000003  1.0000
  Si  Si11      1.0  0.4519999999999999  0.5329999999999999  0.7563666666666666  1.0000
  Si  Si12      1.0  0.0810000000000001  0.5480000000000002  0.4230333333333334  1.0000
  O   O1        1.0  0.745  0.167  0.9634  1.0000
  O   O2        1.0  0.833  0.578  0.2967333333333333  1.0000
  O   O3        1.0  0.42200000000000004  0.255  0.6300666666666667  1.0000
  O   O4        1.0  0.745  0.578  0.0366  1.0000
  O   O5        1.0  0.833  0.255  0.7032666666666666  1.0000
  O   O6        1.0  0.42200000000000004  0.167  0.36993333333333334  1.0000
  O   O7        1.0  0.523  0.575  0.9642000000000001  1.0000
  O   O8        1.0  0.42500000000000004  0.9480000000000001  0.2975333333333333  1.0000
  O   O9        1.0  0.05199999999999993  0.477  0.6308666666666668  1.0000
  O   O10       1.0  0.523  0.9480000000000001  0.0358  1.0000
  O   O11       1.0  0.42500000000000004  0.477  0.7024666666666666  1.0000
  O   O12       1.0  0.05199999999999993  0.575  0.36913333333333337  1.0000
  O   O13       1.0  0.671  0.859  0.8894  1.0000
  O   O14       1.0  0.14100000000000004  0.812  0.2227333333333333  1.0000
  O   O15       1.0  0.18799999999999994  0.32899999999999996  0.5560666666666666  1.0000
  O   O16       1.0  0.671  0.812  0.11060000000000003  1.0000
  O   O17       1.0  0.14100000000000004  0.32899999999999996  0.7772666666666668  1.0000
  O   O18       1.0  0.18799999999999994  0.859  0.4439333333333334  1.0000
  O   O19       1.0  0.13900000000000007  0.4580000000000001  0.8930000000000001  1.0000
  O   O20       1.0  0.542  0.6809999999999999  0.22633333333333333  1.0000
  O   O21       1.0  0.3190000000000001  0.861  0.5596666666666668  1.0000
  O   O22       1.0  0.13900000000000007  0.6809999999999999  0.107  1.0000
  O   O23       1.0  0.542  0.861  0.7736666666666666  1.0000
  O   O24       1.0  0.3190000000000001  0.4580000000000001  0.44033333333333335  1.0000
  O   O25       1.0  0.574  0.315  0.8899  1.0000
  O   O26       1.0  0.6850000000000002  0.25899999999999995  0.22323333333333334  1.0000
  O   O27       1.0  0.7410000000000002  0.42600000000000005  0.5565666666666667  1.0000
  O   O28       1.0  0.574  0.25899999999999995  0.1101  1.0000
  O   O29       1.0  0.6850000000000002  0.42600000000000005  0.7767666666666666  1.0000
  O   O30       1.0  0.7410000000000002  0.315  0.4434333333333334  1.0000
  O   O31       1.0  0.128  0.933  0.9655  1.0000
  O   O32       1.0  0.067  0.195  0.2988333333333333  1.0000
  O   O33       1.0  0.805  0.8720000000000001  0.6321666666666667  1.0000
  O   O34       1.0  0.128  0.195  0.0345  1.0000
  O   O35       1.0  0.06700000000000006  0.8720000000000001  0.7011666666666667  1.0000
  O   O36       1.0  0.805  0.933  0.36783333333333335  1.0000
  H   H1        1.0  0.0  0.0  0.0  1.0000
  H   H2        1.0  0.0  0.0  0.33333333333333326  1.0000
  H   H3        1.0  0.0  0.0  0.6666666666666666  1.0000
  Al  Al7       1.0  0.7940000000000003  0.204  0.9103000000000001  0.5000
  Al  Al8       1.0  0.7960000000000002  0.5900000000000003  0.24363333333333334  0.5000
  Al  Al9       1.0  0.40999999999999986  0.20599999999999985  0.5769666666666667  0.5000
  Al  Al10      1.0  0.7940000000000003  0.5900000000000003  0.08970000000000003  0.5000
  Al  Al11      1.0  0.7960000000000002  0.20599999999999985  0.7563666666666666  0.5000
  Al  Al12      1.0  0.40999999999999986  0.204  0.4230333333333334  0.5000
