data_image0
_chemical_formula_structural       Eu4Ag4P16O48
_chemical_formula_sum              "Eu4 Ag4 P16 O48"
_cell_length_a       9.9654
_cell_length_b       13.1445
_cell_length_c       7.232100000000001
_cell_angle_alpha    90.0
_cell_angle_beta     90.42
_cell_angle_gamma    90.0

_space_group_name_H-M_alt    "P 1"
_space_group_IT_number       1

loop_
  _space_group_symop_operation_xyz
  'x, y, z'

loop_
  _atom_site_type_symbol
  _atom_site_label
  _atom_site_symmetry_multiplicity
  _atom_site_fract_x
  _atom_site_fract_y
  _atom_site_fract_z
  _atom_site_occupancy
  Eu  Eu1       1.0  0.52254  0.7821200000000003  0.51227  1.0000
  Eu  Eu2       1.0  0.9774599999999998  0.28212000000000015  0.9877299999999999  1.0000
  Eu  Eu3       1.0  0.47746000000000005  0.21787999999999988  0.48772999999999994  1.0000
  Eu  Eu4       1.0  0.022540000000000004  0.7178799999999999  0.012270000000000003  1.0000
  Ag  Ag1       1.0  0.43355000000000005  0.7767  0.00017000000000000345  1.0000
  Ag  Ag2       1.0  0.06644999999999997  0.2767  0.49983  1.0000
  Ag  Ag3       1.0  0.5664499999999999  0.22330000000000005  0.9998299999999999  1.0000
  Ag  Ag4       1.0  0.9335500000000001  0.7233000000000002  0.5001699999999999  1.0000
  P   P1        1.0  0.2519  0.9000800000000002  0.2536  1.0000
  P   P2        1.0  0.24810000000000001  0.40008  0.24639999999999992  1.0000
  P   P3        1.0  0.7481  0.09991999999999991  0.7463999999999998  1.0000
  P   P4        1.0  0.7519000000000001  0.5999199999999999  0.7535999999999999  1.0000
  P   P5        1.0  0.19511  0.8733800000000002  0.6486000000000001  1.0000
  P   P6        1.0  0.30489  0.37338000000000005  0.8513999999999999  1.0000
  P   P7        1.0  0.80489  0.12661999999999987  0.35139999999999993  1.0000
  P   P8        1.0  0.69511  0.62662  0.14860000000000007  1.0000
  P   P9        1.0  0.79921  0.9098300000000002  0.26349999999999985  1.0000
  P   P10       1.0  0.7007900000000001  0.4098300000000002  0.23650000000000013  1.0000
  P   P11       1.0  0.20079000000000002  0.09016999999999988  0.7365000000000002  1.0000
  P   P12       1.0  0.29921  0.5901699999999999  0.7634999999999997  1.0000
  P   P13       1.0  0.73739  0.8859400000000002  0.8737999999999999  1.0000
  P   P14       1.0  0.7626100000000001  0.3859400000000002  0.6262000000000001  1.0000
  P   P15       1.0  0.26261  0.11405999999999994  0.1262000000000001  1.0000
  P   P16       1.0  0.23739000000000002  0.6140599999999999  0.37379999999999985  1.0000
  O   O1        1.0  0.1995  0.8356000000000002  0.10179999999999967  1.0000
  O   O2        1.0  0.3005  0.3356000000000002  0.3982000000000003  1.0000
  O   O3        1.0  0.8004999999999999  0.1643999999999999  0.8982000000000003  1.0000
  O   O4        1.0  0.6995000000000001  0.6643999999999999  0.6017999999999997  1.0000
  O   O5        1.0  0.3997  0.8951000000000002  0.2904  1.0000
  O   O6        1.0  0.10030000000000001  0.39510000000000023  0.20959999999999998  1.0000
  O   O7        1.0  0.6003000000000001  0.10489999999999988  0.7095999999999999  1.0000
  O   O8        1.0  0.8996999999999999  0.6049  0.7903999999999999  1.0000
  O   O9        1.0  0.2039  0.013300000000000091  0.2168000000000001  1.0000
  O   O10       1.0  0.29610000000000003  0.5133000000000002  0.2831999999999999  1.0000
  O   O11       1.0  0.7961  0.9867  0.7831999999999998  1.0000
  O   O12       1.0  0.7039  0.4866999999999999  0.7168  1.0000
  O   O13       1.0  0.16290000000000002  0.8769000000000002  0.4334999999999997  1.0000
  O   O14       1.0  0.33709999999999996  0.37690000000000007  0.06650000000000021  1.0000
  O   O15       1.0  0.8371  0.12309999999999989  0.5665000000000002  1.0000
  O   O16       1.0  0.6629  0.6230999999999999  0.9334999999999998  1.0000
  O   O17       1.0  0.34440000000000004  0.8678  0.6766999999999997  1.0000
  O   O18       1.0  0.15559999999999996  0.36779999999999996  0.8233  1.0000
  O   O19       1.0  0.6556000000000001  0.1322  0.32330000000000014  1.0000
  O   O20       1.0  0.8444  0.6322000000000001  0.17669999999999986  1.0000
  O   O21       1.0  0.10620000000000002  0.7906000000000002  0.7230999999999999  1.0000
  O   O22       1.0  0.3938  0.29059999999999997  0.7769000000000001  1.0000
  O   O23       1.0  0.8938  0.20939999999999992  0.2769000000000001  1.0000
  O   O24       1.0  0.6062000000000001  0.7093999999999999  0.2230999999999996  1.0000
  O   O25       1.0  0.8644000000000001  0.02140000000000009  0.27770000000000006  1.0000
  O   O26       1.0  0.6356  0.5214000000000002  0.22229999999999991  1.0000
  O   O27       1.0  0.13559999999999997  0.9786  0.7222999999999999  1.0000
  O   O28       1.0  0.3644000000000001  0.4785999999999999  0.7777000000000001  1.0000
  O   O29       1.0  0.9144  0.8395  0.23290000000000008  1.0000
  O   O30       1.0  0.5856  0.33950000000000014  0.26709999999999984  1.0000
  O   O31       1.0  0.08560000000000001  0.16049999999999998  0.7670999999999998  1.0000
  O   O32       1.0  0.4144000000000001  0.6605000000000001  0.7329  1.0000
  O   O33       1.0  0.7055000000000001  0.8919  0.4216999999999999  1.0000
  O   O34       1.0  0.7944999999999999  0.3919000000000002  0.07830000000000002  1.0000
  O   O35       1.0  0.2944999999999999  0.10809999999999997  0.5783  1.0000
  O   O36       1.0  0.20550000000000024  0.6081  0.9217  1.0000
  O   O37       1.0  0.7085  0.9202000000000001  0.08219999999999983  1.0000
  O   O38       1.0  0.7915  0.4202000000000002  0.4178000000000001  1.0000
  O   O39       1.0  0.2915  0.07979999999999987  0.9178000000000002  1.0000
  O   O40       1.0  0.20849999999999994  0.5797999999999999  0.5821999999999998  1.0000
  O   O41       1.0  0.8483000000000002  0.8097000000000002  0.8670999999999999  1.0000
  O   O42       1.0  0.6516999999999998  0.30970000000000014  0.6329000000000001  1.0000
  O   O43       1.0  0.15169999999999986  0.19029999999999994  0.13290000000000013  1.0000
  O   O44       1.0  0.34830000000000005  0.6902999999999999  0.3670999999999997  1.0000
  O   O45       1.0  0.6047  0.8557  0.7932999999999998  1.0000
  O   O46       1.0  0.8953  0.3557000000000001  0.7067  1.0000
  O   O47       1.0  0.3953  0.1443  0.2067000000000001  1.0000
  O   O48       1.0  0.10470000000000002  0.6443000000000001  0.29329999999999984  1.0000
