data_image0
_chemical_formula_structural       Co8Al24P32O128
_chemical_formula_sum              "Co8 Al24 P32 O128"
_cell_length_a       10.2959
_cell_length_b       14.3715
_cell_length_c       28.599
_cell_angle_alpha    90.0
_cell_angle_beta     91.094
_cell_angle_gamma    90.0

_space_group_name_H-M_alt    "P 1"
_space_group_IT_number       1

loop_
  _space_group_symop_operation_xyz
  'x, y, z'

loop_
  _atom_site_type_symbol
  _atom_site_label
  _atom_site_symmetry_multiplicity
  _atom_site_fract_x
  _atom_site_fract_y
  _atom_site_fract_z
  _atom_site_occupancy
  Co  Co1       1.0  0.14313  0.14156  0.3681299999999999  0.7500
  Co  Co2       1.0  0.8568700000000001  0.14156  0.13187000000000001  0.7500
  Co  Co3       1.0  0.6431300000000001  0.64156  0.3681299999999999  0.7500
  Co  Co4       1.0  0.3568700000000001  0.64156  0.13187000000000001  0.7500
  Co  Co5       1.0  0.8568700000000001  0.85844  0.6318699999999999  0.7500
  Co  Co6       1.0  0.14313  0.85844  0.8681299999999998  0.7500
  Co  Co7       1.0  0.35687  0.3584399999999999  0.6318699999999999  0.7500
  Co  Co8       1.0  0.6431300000000001  0.3584399999999999  0.8681299999999998  0.7500
  Al  Al1       1.0  0.6367  0.02467  0.30798  0.6500
  Al  Al2       1.0  0.36329999999999996  0.02467  0.19202000000000002  0.6500
  Al  Al3       1.0  0.13670000000000007  0.52467  0.30798  0.6500
  Al  Al4       1.0  0.8633  0.52467  0.19202000000000002  0.6500
  Al  Al5       1.0  0.36329999999999996  0.97533  0.6920200000000001  0.6500
  Al  Al6       1.0  0.6367  0.97533  0.8079799999999998  0.6500
  Al  Al7       1.0  0.8633  0.47533  0.6920200000000001  0.6500
  Al  Al8       1.0  0.13670000000000007  0.47533  0.8079799999999998  0.6500
  Al  Al9       1.0  0.85575  0.9966899999999999  0.4414999999999999  0.6500
  Al  Al10      1.0  0.14425  0.9966899999999999  0.058500000000000045  0.6500
  Al  Al11      1.0  0.35575  0.49669  0.4414999999999999  0.6500
  Al  Al12      1.0  0.64425  0.49669  0.058500000000000045  0.6500
  Al  Al13      1.0  0.14425  0.00331  0.5585  0.6500
  Al  Al14      1.0  0.85575  0.00331  0.9414999999999999  0.6500
  Al  Al15      1.0  0.64425  0.50331  0.5585  0.6500
  Al  Al16      1.0  0.35575  0.50331  0.9414999999999999  0.6500
  Al  Al17      1.0  0.35305000000000003  0.87354  0.3816199999999999  0.8500
  Al  Al18      1.0  0.6469499999999999  0.87354  0.11838000000000003  0.8500
  Al  Al19      1.0  0.8530500000000002  0.37354  0.3816199999999999  0.8500
  Al  Al20      1.0  0.14694999999999997  0.37354  0.11838000000000003  0.8500
  Al  Al21      1.0  0.6469499999999999  0.12646  0.61838  0.8500
  Al  Al22      1.0  0.35305000000000003  0.12646  0.88162  0.8500
  Al  Al23      1.0  0.14694999999999997  0.62646  0.61838  0.8500
  Al  Al24      1.0  0.8530500000000002  0.62646  0.88162  0.8500
  P   P1        1.0  0.33433  0.02713  0.3025099999999999  1.0000
  P   P2        1.0  0.66567  0.02713  0.19749000000000003  1.0000
  P   P3        1.0  0.83433  0.52713  0.3025099999999999  1.0000
  P   P4        1.0  0.16566999999999998  0.52713  0.19749000000000003  1.0000
  P   P5        1.0  0.66567  0.9728699999999999  0.69749  1.0000
  P   P6        1.0  0.33433  0.9728699999999999  0.80251  1.0000
  P   P7        1.0  0.16566999999999998  0.47287  0.69749  1.0000
  P   P8        1.0  0.83433  0.47287  0.80251  1.0000
  P   P9        1.0  0.16042  0.9858  0.44590999999999986  1.0000
  P   P10       1.0  0.83958  0.9858  0.054090000000000076  1.0000
  P   P11       1.0  0.6604199999999999  0.4858  0.44590999999999986  1.0000
  P   P12       1.0  0.33958000000000005  0.4858  0.054090000000000076  1.0000
  P   P13       1.0  0.8395800000000001  0.0142  0.5540900000000001  1.0000
  P   P14       1.0  0.16042  0.0142  0.9459099999999998  1.0000
  P   P15       1.0  0.33958000000000005  0.5142  0.5540900000000001  1.0000
  P   P16       1.0  0.66042  0.5142  0.9459099999999998  1.0000
  P   P17       1.0  0.8372599999999999  0.15241  0.36553  1.0000
  P   P18       1.0  0.16274  0.15241  0.13446999999999998  1.0000
  P   P19       1.0  0.33726  0.6524099999999999  0.36553  1.0000
  P   P20       1.0  0.6627400000000001  0.6524099999999999  0.13446999999999998  1.0000
  P   P21       1.0  0.16274  0.84759  0.6344699999999999  1.0000
  P   P22       1.0  0.8372600000000001  0.84759  0.8655299999999999  1.0000
  P   P23       1.0  0.6627400000000001  0.34759  0.6344699999999999  1.0000
  P   P24       1.0  0.33726  0.34759  0.8655299999999999  1.0000
  P   P25       1.0  0.655  0.86644  0.3836499999999999  1.0000
  P   P26       1.0  0.345  0.86644  0.11635000000000005  1.0000
  P   P27       1.0  0.15500000000000003  0.36644  0.3836499999999999  1.0000
  P   P28       1.0  0.8450000000000001  0.36644  0.11635000000000005  1.0000
  P   P29       1.0  0.345  0.13356  0.61635  1.0000
  P   P30       1.0  0.655  0.13356  0.8836499999999998  1.0000
  P   P31       1.0  0.845  0.63356  0.61635  1.0000
  P   P32       1.0  0.15500000000000003  0.63356  0.8836499999999998  1.0000
  O   O1        1.0  0.46900000000000003  0.0665  0.31158  1.0000
  O   O2        1.0  0.5309999999999999  0.0665  0.18841999999999998  1.0000
  O   O3        1.0  0.9690000000000001  0.5665  0.31158  1.0000
  O   O4        1.0  0.030999999999999975  0.5665  0.18841999999999998  1.0000
  O   O5        1.0  0.5309999999999999  0.9334999999999999  0.6884199999999999  1.0000
  O   O6        1.0  0.46900000000000003  0.9334999999999999  0.8115799999999999  1.0000
  O   O7        1.0  0.03099999999999997  0.4335  0.6884199999999999  1.0000
  O   O8        1.0  0.9690000000000001  0.4335  0.8115799999999999  1.0000
  O   O9        1.0  0.5176000000000001  0.8824  0.4015299999999999  1.0000
  O   O10       1.0  0.48239999999999994  0.8824  0.09847000000000004  1.0000
  O   O11       1.0  0.01760000000000006  0.3824  0.4015299999999999  1.0000
  O   O12       1.0  0.9823999999999999  0.3824  0.09847000000000004  1.0000
  O   O13       1.0  0.48239999999999994  0.1176  0.5984700000000001  1.0000
  O   O14       1.0  0.5176000000000001  0.1176  0.9015299999999999  1.0000
  O   O15       1.0  0.9823999999999999  0.6175999999999999  0.5984700000000001  1.0000
  O   O16       1.0  0.01760000000000006  0.6175999999999999  0.9015299999999999  1.0000
  O   O17       1.0  0.0218  0.9551000000000001  0.4352399999999999  1.0000
  O   O18       1.0  0.9782  0.9551000000000001  0.06476000000000003  1.0000
  O   O19       1.0  0.5218000000000002  0.45509999999999995  0.4352399999999999  1.0000
  O   O20       1.0  0.4782  0.45509999999999995  0.06476000000000003  1.0000
  O   O21       1.0  0.9782  0.044899999999999995  0.56476  1.0000
  O   O22       1.0  0.02179999999999999  0.044899999999999995  0.9352399999999998  1.0000
  O   O23       1.0  0.4782  0.5448999999999999  0.56476  1.0000
  O   O24       1.0  0.5218000000000002  0.5448999999999999  0.9352399999999998  1.0000
  O   O25       1.0  0.316  0.9372  0.32935999999999993  1.0000
  O   O26       1.0  0.6839999999999999  0.9372  0.17064000000000007  1.0000
  O   O27       1.0  0.8160000000000002  0.43720000000000003  0.32935999999999993  1.0000
  O   O28       1.0  0.184  0.43720000000000003  0.17064000000000007  1.0000
  O   O29       1.0  0.6839999999999999  0.0628  0.6706400000000001  1.0000
  O   O30       1.0  0.316  0.0628  0.8293599999999999  1.0000
  O   O31       1.0  0.18400000000000002  0.5628  0.6706400000000001  1.0000
  O   O32       1.0  0.8160000000000002  0.5628  0.8293599999999999  1.0000
  O   O33       1.0  0.1875  0.0794  0.42384  1.0000
  O   O34       1.0  0.8125000000000001  0.0794  0.07615999999999999  1.0000
  O   O35       1.0  0.6875  0.5794  0.42384  1.0000
  O   O36       1.0  0.31250000000000006  0.5794  0.07615999999999999  1.0000
  O   O37       1.0  0.8125000000000001  0.9206  0.57616  1.0000
  O   O38       1.0  0.1875  0.9206  0.9238399999999999  1.0000
  O   O39       1.0  0.31250000000000006  0.4206  0.57616  1.0000
  O   O40       1.0  0.6875  0.4206  0.9238399999999999  1.0000
  O   O41       1.0  0.9701  0.1314  0.3460399999999999  1.0000
  O   O42       1.0  0.029900000000000006  0.1314  0.15396  1.0000
  O   O43       1.0  0.4701  0.6313999999999999  0.3460399999999999  1.0000
  O   O44       1.0  0.5299  0.6313999999999999  0.15396  1.0000
  O   O45       1.0  0.029900000000000003  0.8686  0.65396  1.0000
  O   O46       1.0  0.9700999999999999  0.8686  0.8460399999999998  1.0000
  O   O47       1.0  0.5299  0.36860000000000004  0.65396  1.0000
  O   O48       1.0  0.4701  0.36860000000000004  0.8460399999999998  1.0000
  O   O49       1.0  0.6861  0.0029  0.24867999999999996  1.0000
  O   O50       1.0  0.31389999999999996  0.0029  0.25132  1.0000
  O   O51       1.0  0.18610000000000015  0.5029  0.24867999999999996  1.0000
  O   O52       1.0  0.8139  0.5029  0.25132  1.0000
  O   O53       1.0  0.31389999999999996  0.9971  0.7513199999999999  1.0000
  O   O54       1.0  0.6861  0.9971  0.74868  1.0000
  O   O55       1.0  0.8139  0.49709999999999993  0.7513199999999999  1.0000
  O   O56       1.0  0.18610000000000015  0.49709999999999993  0.74868  1.0000
  O   O57       1.0  0.2521  0.9125999999999999  0.4275499999999999  1.0000
  O   O58       1.0  0.7479  0.9125999999999999  0.07245000000000007  1.0000
  O   O59       1.0  0.7521  0.4126  0.4275499999999999  1.0000
  O   O60       1.0  0.2479  0.4126  0.07245000000000007  1.0000
  O   O61       1.0  0.7479  0.08739999999999998  0.5724500000000001  1.0000
  O   O62       1.0  0.2521  0.08739999999999998  0.9275499999999999  1.0000
  O   O63       1.0  0.2479  0.5874  0.5724500000000001  1.0000
  O   O64       1.0  0.7521  0.5874  0.9275499999999999  1.0000
  O   O65       1.0  0.8231  0.10739999999999997  0.4129299999999999  1.0000
  O   O66       1.0  0.17690000000000003  0.10739999999999997  0.08707000000000002  1.0000
  O   O67       1.0  0.32309999999999994  0.6073999999999999  0.4129299999999999  1.0000
  O   O68       1.0  0.6769000000000002  0.6073999999999999  0.08707000000000002  1.0000
  O   O69       1.0  0.1769  0.8926000000000001  0.5870699999999999  1.0000
  O   O70       1.0  0.8231  0.8926000000000001  0.9129299999999999  1.0000
  O   O71       1.0  0.6769000000000002  0.3926  0.5870699999999999  1.0000
  O   O72       1.0  0.32309999999999994  0.3926  0.9129299999999999  1.0000
  O   O73       1.0  0.6666000000000001  0.9131999999999999  0.33649999999999997  1.0000
  O   O74       1.0  0.3333999999999999  0.9131999999999999  0.16350000000000003  1.0000
  O   O75       1.0  0.1666000000000001  0.4132  0.33649999999999997  1.0000
  O   O76       1.0  0.8334  0.4132  0.16350000000000003  1.0000
  O   O77       1.0  0.3333999999999999  0.0868  0.6634999999999999  1.0000
  O   O78       1.0  0.6666000000000001  0.0868  0.8364999999999999  1.0000
  O   O79       1.0  0.8334  0.5868  0.6634999999999999  1.0000
  O   O80       1.0  0.1666000000000001  0.5868  0.8364999999999999  1.0000
  O   O81       1.0  0.2317  0.0967  0.31535  1.0000
  O   O82       1.0  0.7683000000000001  0.0967  0.18464999999999995  1.0000
  O   O83       1.0  0.7317  0.5967  0.31535  1.0000
  O   O84       1.0  0.2683  0.5967  0.18464999999999995  1.0000
  O   O85       1.0  0.7683000000000001  0.9033  0.6846499999999999  1.0000
  O   O86       1.0  0.2317  0.9033  0.8153499999999999  1.0000
  O   O87       1.0  0.2683  0.4033  0.6846499999999999  1.0000
  O   O88       1.0  0.7317  0.4033  0.8153499999999999  1.0000
  O   O89       1.0  0.3146  0.7562  0.3692999999999999  1.0000
  O   O90       1.0  0.6854  0.7562  0.1307  1.0000
  O   O91       1.0  0.8146000000000001  0.2562  0.3692999999999999  1.0000
  O   O92       1.0  0.1854  0.2562  0.1307  1.0000
  O   O93       1.0  0.6854  0.2438  0.6307  1.0000
  O   O94       1.0  0.3146  0.2438  0.8693  1.0000
  O   O95       1.0  0.1854  0.7438  0.6307  1.0000
  O   O96       1.0  0.8146000000000001  0.7438  0.8693  1.0000
  O   O97       1.0  0.8139  0.0096  0.50182  1.0000
  O   O98       1.0  0.18610000000000002  0.0096  0.9981799999999998  1.0000
  O   O99       1.0  0.31389999999999996  0.5096  0.50182  1.0000
  O   O100      1.0  0.6861  0.5096  0.9981799999999998  1.0000
  O   O101      1.0  0.18610000000000002  0.9903999999999998  0.4981799999999999  1.0000
  O   O102      1.0  0.8139  0.9903999999999998  0.0018199999999999326  1.0000
  O   O103      1.0  0.6861  0.4904  0.4981799999999999  1.0000
  O   O104      1.0  0.31389999999999996  0.4904  0.0018199999999999326  1.0000
  O   O105      1.0  0.1847  0.2654  0.3792999999999999  1.0000
  O   O106      1.0  0.8153  0.2654  0.12070000000000003  1.0000
  O   O107      1.0  0.6847  0.7654000000000001  0.3792999999999999  1.0000
  O   O108      1.0  0.3153000000000001  0.7654000000000001  0.12070000000000003  1.0000
  O   O109      1.0  0.8153  0.7345999999999999  0.6207  1.0000
  O   O110      1.0  0.1847  0.7345999999999999  0.8793  1.0000
  O   O111      1.0  0.3153000000000001  0.23459999999999998  0.6207  1.0000
  O   O112      1.0  0.6847  0.23459999999999998  0.8793  1.0000
  O   O113      1.0  0.7328  0.11749999999999998  0.3323599999999999  1.0000
  O   O114      1.0  0.26719999999999994  0.11749999999999998  0.16764000000000004  1.0000
  O   O115      1.0  0.23280000000000012  0.6174999999999999  0.3323599999999999  1.0000
  O   O116      1.0  0.7672000000000001  0.6174999999999999  0.16764000000000004  1.0000
  O   O117      1.0  0.2672  0.8825  0.6676399999999999  1.0000
  O   O118      1.0  0.7328  0.8825  0.8323599999999999  1.0000
  O   O119      1.0  0.7672000000000001  0.3825  0.6676399999999999  1.0000
  O   O120      1.0  0.23280000000000012  0.3825  0.8323599999999999  1.0000
  O   O121      1.0  0.7508  0.9063999999999999  0.41837999999999986  1.0000
  O   O122      1.0  0.24920000000000003  0.9063999999999999  0.08162000000000007  1.0000
  O   O123      1.0  0.25079999999999997  0.4064  0.41837999999999986  1.0000
  O   O124      1.0  0.7492000000000001  0.4064  0.08162000000000007  1.0000
  O   O125      1.0  0.24920000000000003  0.0936  0.58162  1.0000
  O   O126      1.0  0.7508  0.0936  0.91838  1.0000
  O   O127      1.0  0.7492000000000001  0.5936  0.58162  1.0000
  O   O128      1.0  0.25079999999999997  0.5936  0.91838  1.0000
  Al  Al25      1.0  0.14313  0.14156  0.3681299999999999  0.2500
  Al  Al26      1.0  0.8568700000000001  0.14156  0.13187000000000001  0.2500
  Al  Al27      1.0  0.6431300000000001  0.64156  0.3681299999999999  0.2500
  Al  Al28      1.0  0.3568700000000001  0.64156  0.13187000000000001  0.2500
  Al  Al29      1.0  0.8568700000000001  0.85844  0.6318699999999999  0.2500
  Al  Al30      1.0  0.14313  0.85844  0.8681299999999998  0.2500
  Al  Al31      1.0  0.35687  0.3584399999999999  0.6318699999999999  0.2500
  Al  Al32      1.0  0.6431300000000001  0.3584399999999999  0.8681299999999998  0.2500
  Co  Co9       1.0  0.6367  0.02467  0.30798  0.3500
  Co  Co10      1.0  0.36329999999999996  0.02467  0.19202000000000002  0.3500
  Co  Co11      1.0  0.13670000000000007  0.52467  0.30798  0.3500
  Co  Co12      1.0  0.8633  0.52467  0.19202000000000002  0.3500
  Co  Co13      1.0  0.36329999999999996  0.97533  0.6920200000000001  0.3500
  Co  Co14      1.0  0.6367  0.97533  0.8079799999999998  0.3500
  Co  Co15      1.0  0.8633  0.47533  0.6920200000000001  0.3500
  Co  Co16      1.0  0.13670000000000007  0.47533  0.8079799999999998  0.3500
  Co  Co17      1.0  0.85575  0.9966899999999999  0.4414999999999999  0.3500
  Co  Co18      1.0  0.14425  0.9966899999999999  0.058500000000000045  0.3500
  Co  Co19      1.0  0.35575  0.49669  0.4414999999999999  0.3500
  Co  Co20      1.0  0.64425  0.49669  0.058500000000000045  0.3500
  Co  Co21      1.0  0.14425  0.00331  0.5585  0.3500
  Co  Co22      1.0  0.85575  0.00331  0.9414999999999999  0.3500
  Co  Co23      1.0  0.64425  0.50331  0.5585  0.3500
  Co  Co24      1.0  0.35575  0.50331  0.9414999999999999  0.3500
  Co  Co25      1.0  0.35305000000000003  0.87354  0.3816199999999999  0.1500
  Co  Co26      1.0  0.6469499999999999  0.87354  0.11838000000000003  0.1500
  Co  Co27      1.0  0.8530500000000002  0.37354  0.3816199999999999  0.1500
  Co  Co28      1.0  0.14694999999999997  0.37354  0.11838000000000003  0.1500
  Co  Co29      1.0  0.6469499999999999  0.12646  0.61838  0.1500
  Co  Co30      1.0  0.35305000000000003  0.12646  0.88162  0.1500
  Co  Co31      1.0  0.14694999999999997  0.62646  0.61838  0.1500
  Co  Co32      1.0  0.8530500000000002  0.62646  0.88162  0.1500
