data_image0
_chemical_formula_structural       K16N16O48
_chemical_formula_sum              "K16 N16 O48"
_cell_length_a       10.825
_cell_length_b       18.351
_cell_length_c       6.435
_cell_angle_alpha    90.0
_cell_angle_beta     90.0
_cell_angle_gamma    90.0

_space_group_name_H-M_alt    "P 1"
_space_group_IT_number       1

loop_
  _space_group_symop_operation_xyz
  'x, y, z'

loop_
  _atom_site_type_symbol
  _atom_site_label
  _atom_site_symmetry_multiplicity
  _atom_site_fract_x
  _atom_site_fract_y
  _atom_site_fract_z
  _atom_site_occupancy
  K   K1        1.0  0.0  0.41703  0.2604000000000001  1.0000
  K   K2        1.0  0.0  0.58297  0.7604000000000001  1.0000
  K   K3        1.0  0.5  0.91703  0.2604000000000001  1.0000
  K   K4        1.0  0.5  0.08296999999999999  0.7604000000000001  1.0000
  K   K5        1.0  0.5  0.41679  0.2614  1.0000
  K   K6        1.0  0.5  0.5832099999999999  0.7614000000000001  1.0000
  K   K7        1.0  0.0  0.91679  0.2614  1.0000
  K   K8        1.0  0.0  0.08321  0.7614000000000001  1.0000
  K   K9        1.0  0.24979999999999997  0.1667  0.25104  1.0000
  K   K10       1.0  0.7502  0.8333  0.75104  1.0000
  K   K11       1.0  0.7502  0.1667  0.25104  1.0000
  K   K12       1.0  0.24979999999999997  0.8333  0.75104  1.0000
  K   K13       1.0  0.7497999999999999  0.6667  0.25104  1.0000
  K   K14       1.0  0.25020000000000003  0.33330000000000004  0.75104  1.0000
  K   K15       1.0  0.25020000000000003  0.6667  0.25104  1.0000
  K   K16       1.0  0.7497999999999999  0.33330000000000004  0.75104  1.0000
  N   N1        1.0  0.0  0.24830000000000002  0.4215  1.0000
  N   N2        1.0  0.0  0.7517  0.9215000000000001  1.0000
  N   N3        1.0  0.5  0.7483  0.4215  1.0000
  N   N4        1.0  0.5  0.2517  0.9215000000000001  1.0000
  N   N5        1.0  0.5  0.24689999999999998  0.4208  1.0000
  N   N6        1.0  0.5  0.7531  0.9208000000000001  1.0000
  N   N7        1.0  0.0  0.7469  0.4208  1.0000
  N   N8        1.0  0.0  0.2531  0.9208000000000001  1.0000
  N   N9        1.0  0.24969999999999998  0.4979  0.0911  1.0000
  N   N10       1.0  0.7503  0.5021  0.5911000000000001  1.0000
  N   N11       1.0  0.7503  0.4979  0.0911  1.0000
  N   N12       1.0  0.24969999999999998  0.5021  0.5911000000000001  1.0000
  N   N13       1.0  0.7497  0.9979  0.0911  1.0000
  N   N14       1.0  0.2503  0.0020999999999999908  0.5911000000000001  1.0000
  N   N15       1.0  0.2503  0.9979  0.0911  1.0000
  N   N16       1.0  0.7497  0.0020999999999999908  0.5911000000000001  1.0000
  O   O1        1.0  0.0  0.1807  0.41400000000000003  1.0000
  O   O2        1.0  0.0  0.8193  0.9140000000000001  1.0000
  O   O3        1.0  0.5  0.6807  0.41400000000000003  1.0000
  O   O4        1.0  0.5  0.31930000000000003  0.9140000000000001  1.0000
  O   O5        1.0  0.5  0.1788  0.4138  1.0000
  O   O6        1.0  0.5  0.8212  0.9138000000000001  1.0000
  O   O7        1.0  0.0  0.6787999999999998  0.4138  1.0000
  O   O8        1.0  0.0  0.32120000000000004  0.9138000000000001  1.0000
  O   O9        1.0  0.09989999999999997  0.283  0.4206000000000001  1.0000
  O   O10       1.0  0.9000999999999999  0.717  0.9206000000000001  1.0000
  O   O11       1.0  0.9000999999999999  0.283  0.4206000000000001  1.0000
  O   O12       1.0  0.09989999999999997  0.717  0.9206000000000001  1.0000
  O   O13       1.0  0.5999  0.7829999999999999  0.4206000000000001  1.0000
  O   O14       1.0  0.4001  0.21700000000000003  0.9206000000000001  1.0000
  O   O15       1.0  0.4001  0.7829999999999999  0.4206000000000001  1.0000
  O   O16       1.0  0.5999  0.21700000000000003  0.9206000000000001  1.0000
  O   O17       1.0  0.3987  0.2809  0.4248  1.0000
  O   O18       1.0  0.6013  0.7191000000000001  0.9248000000000002  1.0000
  O   O19       1.0  0.6013  0.2809  0.4248  1.0000
  O   O20       1.0  0.3987  0.7191000000000001  0.9248000000000002  1.0000
  O   O21       1.0  0.8987  0.7808999999999999  0.4248  1.0000
  O   O22       1.0  0.1013  0.2191  0.9248000000000002  1.0000
  O   O23       1.0  0.1013  0.7808999999999999  0.4248  1.0000
  O   O24       1.0  0.8987  0.2191  0.9248000000000002  1.0000
  O   O25       1.0  0.1506  0.5313  0.09840000000000003  1.0000
  O   O26       1.0  0.8493999999999999  0.46869999999999995  0.5984  1.0000
  O   O27       1.0  0.8493999999999999  0.5313  0.09840000000000003  1.0000
  O   O28       1.0  0.1506  0.46869999999999995  0.5984  1.0000
  O   O29       1.0  0.6506000000000001  0.031299999999999883  0.09840000000000003  1.0000
  O   O30       1.0  0.3494  0.9687  0.5984  1.0000
  O   O31       1.0  0.3494  0.031299999999999883  0.09840000000000003  1.0000
  O   O32       1.0  0.6506000000000001  0.9687  0.5984  1.0000
  O   O33       1.0  0.3479  0.5321  0.08960000000000003  1.0000
  O   O34       1.0  0.6521  0.4678999999999999  0.5896000000000001  1.0000
  O   O35       1.0  0.6521  0.5321  0.08960000000000003  1.0000
  O   O36       1.0  0.3479  0.4678999999999999  0.5896000000000001  1.0000
  O   O37       1.0  0.8479  0.03210000000000002  0.08960000000000003  1.0000
  O   O38       1.0  0.1521  0.9678999999999999  0.5896000000000001  1.0000
  O   O39       1.0  0.1521  0.03210000000000002  0.08960000000000003  1.0000
  O   O40       1.0  0.8479  0.9678999999999999  0.5896000000000001  1.0000
  O   O41       1.0  0.2478  0.4296  0.0937  1.0000
  O   O42       1.0  0.7522  0.5704  0.5937  1.0000
  O   O43       1.0  0.7522  0.4296  0.0937  1.0000
  O   O44       1.0  0.2478  0.5704  0.5937  1.0000
  O   O45       1.0  0.7478  0.9296  0.0937  1.0000
  O   O46       1.0  0.2522  0.07040000000000002  0.5937  1.0000
  O   O47       1.0  0.2522  0.9296  0.0937  1.0000
  O   O48       1.0  0.7478  0.07040000000000002  0.5937  1.0000
