data_image0
_chemical_formula_structural       Ge24Rh8Ge8Ba6
_chemical_formula_sum              "Ge32 Rh8 Ba6"
_cell_length_a       6.564
_cell_length_b       6.564
_cell_length_c       22.037
_cell_angle_alpha    90.0
_cell_angle_beta     90.0
_cell_angle_gamma    90.0

_space_group_name_H-M_alt    "P 1"
_space_group_IT_number       1

loop_
  _space_group_symop_operation_xyz
  'x, y, z'

loop_
  _atom_site_type_symbol
  _atom_site_label
  _atom_site_symmetry_multiplicity
  _atom_site_fract_x
  _atom_site_fract_y
  _atom_site_fract_z
  _atom_site_occupancy
  Ge  Ge1       1.0  0.24345999999999995  0.24345999999999995  0.12892  1.0000
  Ge  Ge2       1.0  0.24345999999999995  0.75654  0.87108  1.0000
  Ge  Ge3       1.0  0.75654  0.75654  0.12892  1.0000
  Ge  Ge4       1.0  0.75654  0.24345999999999995  0.87108  1.0000
  Ge  Ge5       1.0  0.24345999999999995  0.24345999999999995  0.87108  1.0000
  Ge  Ge6       1.0  0.24345999999999995  0.75654  0.12892  1.0000
  Ge  Ge7       1.0  0.75654  0.24345999999999995  0.12892  1.0000
  Ge  Ge8       1.0  0.75654  0.75654  0.87108  1.0000
  Ge  Ge9       1.0  0.74346  0.74346  0.62892  1.0000
  Ge  Ge10      1.0  0.74346  0.25654  0.37107999999999997  1.0000
  Ge  Ge11      1.0  0.25654  0.25654  0.62892  1.0000
  Ge  Ge12      1.0  0.25654  0.74346  0.37107999999999997  1.0000
  Ge  Ge13      1.0  0.74346  0.74346  0.37107999999999997  1.0000
  Ge  Ge14      1.0  0.74346  0.25654  0.62892  1.0000
  Ge  Ge15      1.0  0.25654  0.74346  0.62892  1.0000
  Ge  Ge16      1.0  0.25654  0.25654  0.37107999999999997  1.0000
  Ge  Ge17      1.0  0.2285  0.5  0.0  1.0000
  Ge  Ge18      1.0  0.7715  0.5  0.0  1.0000
  Ge  Ge19      1.0  0.5  0.2285  0.0  1.0000
  Ge  Ge20      1.0  0.5  0.7715  0.0  1.0000
  Ge  Ge21      1.0  0.7285  0.0  0.5  1.0000
  Ge  Ge22      1.0  0.27149999999999996  0.0  0.5  1.0000
  Ge  Ge23      1.0  0.0  0.7285  0.5  1.0000
  Ge  Ge24      1.0  0.0  0.27149999999999996  0.5  1.0000
  Rh  Rh1       1.0  0.0  0.5  0.08876  1.0000
  Rh  Rh2       1.0  0.0  0.5  0.91124  1.0000
  Rh  Rh3       1.0  0.5  0.0  0.91124  1.0000
  Rh  Rh4       1.0  0.5  0.0  0.08876  1.0000
  Rh  Rh5       1.0  0.5  0.0  0.58876  1.0000
  Rh  Rh6       1.0  0.5  0.0  0.41124000000000005  1.0000
  Rh  Rh7       1.0  0.0  0.5  0.41124000000000005  1.0000
  Rh  Rh8       1.0  0.0  0.5  0.58876  1.0000
  Ge  Ge25      1.0  0.0  0.0  0.19696  1.0000
  Ge  Ge26      1.0  0.0  0.0  0.8030400000000001  1.0000
  Ge  Ge27      1.0  0.5  0.5  0.6969600000000001  1.0000
  Ge  Ge28      1.0  0.5  0.5  0.30304  1.0000
  Ge  Ge29      1.0  0.0  0.0  0.31061  1.0000
  Ge  Ge30      1.0  0.0  0.0  0.6893900000000001  1.0000
  Ge  Ge31      1.0  0.5  0.5  0.8106100000000002  1.0000
  Ge  Ge32      1.0  0.5  0.5  0.18939  1.0000
  Ba  Ba1       1.0  0.0  0.5  0.25  1.0000
  Ba  Ba2       1.0  0.0  0.5  0.75  1.0000
  Ba  Ba3       1.0  0.5  0.0  0.75  1.0000
  Ba  Ba4       1.0  0.5  0.0  0.25  1.0000
  Ba  Ba5       1.0  0.0  0.0  0.0  1.0000
  Ba  Ba6       1.0  0.5  0.5  0.5  1.0000
