data_image0
_chemical_formula_structural       Ag2V2Ag4O8
_chemical_formula_sum              "Ag6 V2 O8"
_cell_length_a       4.9795
_cell_length_b       4.9795
_cell_length_c       9.7271
_cell_angle_alpha    90.0
_cell_angle_beta     90.0
_cell_angle_gamma    90.0

_space_group_name_H-M_alt    "P 1"
_space_group_IT_number       1

loop_
  _space_group_symop_operation_xyz
  'x, y, z'

loop_
  _atom_site_type_symbol
  _atom_site_label
  _atom_site_symmetry_multiplicity
  _atom_site_fract_x
  _atom_site_fract_y
  _atom_site_fract_z
  _atom_site_occupancy
  Ag  Ag1       1.0  0.0  0.0  0.5  1.0000
  Ag  Ag2       1.0  0.5  0.5  0.0  1.0000
  V   V1        1.0  0.0  0.0  0.0  1.0000
  V   V2        1.0  0.5  0.5  0.5  1.0000
  Ag  Ag3       1.0  0.0  0.5  0.75  1.0000
  Ag  Ag4       1.0  0.5  0.0  0.25  1.0000
  Ag  Ag5       1.0  0.0  0.5  0.25  1.0000
  Ag  Ag6       1.0  0.5  0.0  0.75  1.0000
  O   O1        1.0  0.8008  0.1992  0.8997000000000002  1.0000
  O   O2        1.0  0.19920000000000004  0.8008  0.8997000000000002  1.0000
  O   O3        1.0  0.1992  0.19920000000000004  0.10029999999999983  1.0000
  O   O4        1.0  0.8008  0.8008  0.10029999999999983  1.0000
  O   O5        1.0  0.30079999999999996  0.6992  0.39970000000000017  1.0000
  O   O6        1.0  0.6992  0.3008  0.39970000000000017  1.0000
  O   O7        1.0  0.6992  0.6992  0.6002999999999998  1.0000
  O   O8        1.0  0.3008  0.30079999999999996  0.6002999999999998  1.0000
