data_image0
_chemical_formula_structural       Ba2Ga8Se14
_chemical_formula_sum              "Ba2 Ga8 Se14"
_cell_length_a       7.6252
_cell_length_b       6.5114
_cell_length_c       14.702000000000002
_cell_angle_alpha    90.0
_cell_angle_beta     121.24
_cell_angle_gamma    90.0

_space_group_name_H-M_alt    "P 1"
_space_group_IT_number       1

loop_
  _space_group_symop_operation_xyz
  'x, y, z'

loop_
  _atom_site_type_symbol
  _atom_site_label
  _atom_site_symmetry_multiplicity
  _atom_site_fract_x
  _atom_site_fract_y
  _atom_site_fract_z
  _atom_site_occupancy
  Ba  Ba1       1.0  0.5639200000000002  0.35351999999999995  0.04634  1.0000
  Ba  Ba2       1.0  0.5639200000000001  0.64648  0.5463399999999999  1.0000
  Ga  Ga1       1.0  0.007199999999999894  0.1659  0.7408199999999999  1.0000
  Ga  Ga2       1.0  0.007199999999999865  0.8341000000000001  0.24081999999999978  1.0000
  Ga  Ga3       1.0  0.0  0.0072  0.9999899999999999  1.0000
  Ga  Ga4       1.0  0.9999999999999999  0.9928  0.4999899999999999  1.0000
  Ga  Ga5       1.0  0.49270000000000014  0.1583  0.72796  1.0000
  Ga  Ga6       1.0  0.4927000000000001  0.8417  0.2279599999999999  1.0000
  Ga  Ga7       1.0  0.23740000000000003  0.36319999999999997  0.22516999999999998  1.0000
  Ga  Ga8       1.0  0.23740000000000003  0.6368  0.72517  1.0000
  Se  Se1       1.0  0.7824  0.1506  0.55319  1.0000
  Se  Se2       1.0  0.7824  0.8493999999999999  0.05318999999999985  1.0000
  Se  Se3       1.0  0.005900000000000001  0.3632999999999999  0.0388  1.0000
  Se  Se4       1.0  0.005899999999999928  0.6366999999999999  0.5388  1.0000
  Se  Se5       1.0  0.3285  0.10989999999999998  0.54215  1.0000
  Se  Se6       1.0  0.32850000000000007  0.8901  0.0421499999999999  1.0000
  Se  Se7       1.0  0.32940000000000014  0.0178  0.30967  1.0000
  Se  Se8       1.0  0.32940000000000014  0.9822  0.80967  1.0000
  Se  Se9       1.0  0.09729999999999996  0.508  0.32328999999999997  1.0000
  Se  Se10      1.0  0.09729999999999996  0.492  0.82329  1.0000
  Se  Se11      1.0  0.5703  0.4948  0.28064  1.0000
  Se  Se12      1.0  0.5703  0.5052  0.78064  1.0000
  Se  Se13      1.0  0.8169000000000002  0.030699999999999995  0.30402  1.0000
  Se  Se14      1.0  0.8169000000000002  0.9693  0.80402  1.0000
