data_image0
_chemical_formula_structural       O16Ti4Mn8
_chemical_formula_sum              "O16 Ti4 Mn8"
_cell_length_a       6.17
_cell_length_b       6.17
_cell_length_c       8.564
_cell_angle_alpha    90.0
_cell_angle_beta     90.0
_cell_angle_gamma    90.0

_space_group_name_H-M_alt    "P 1"
_space_group_IT_number       1

loop_
  _space_group_symop_operation_xyz
  'x, y, z'

loop_
  _atom_site_type_symbol
  _atom_site_label
  _atom_site_symmetry_multiplicity
  _atom_site_fract_x
  _atom_site_fract_y
  _atom_site_fract_z
  _atom_site_occupancy
  O   O1        1.0  0.272  0.011  0.009  1.0000
  O   O2        1.0  0.7280000000000001  0.989  0.509  1.0000
  O   O3        1.0  0.989  0.272  0.7589999999999999  1.0000
  O   O4        1.0  0.011  0.7280000000000001  0.25899999999999995  1.0000
  O   O5        1.0  0.7280000000000001  0.011  0.991  1.0000
  O   O6        1.0  0.272  0.989  0.491  1.0000
  O   O7        1.0  0.011  0.272  0.241  1.0000
  O   O8        1.0  0.989  0.7280000000000001  0.741  1.0000
  O   O9        1.0  0.292  0.521  0.014999999999999998  1.0000
  O   O10       1.0  0.7080000000000001  0.479  0.515  1.0000
  O   O11       1.0  0.479  0.292  0.765  1.0000
  O   O12       1.0  0.521  0.7080000000000001  0.265  1.0000
  O   O13       1.0  0.7080000000000001  0.521  0.9849999999999999  1.0000
  O   O14       1.0  0.292  0.479  0.48499999999999993  1.0000
  O   O15       1.0  0.521  0.292  0.235  1.0000
  O   O16       1.0  0.479  0.7080000000000001  0.7349999999999999  1.0000
  Ti  Ti1       1.0  0.5  0.247  0.0  1.0000
  Ti  Ti2       1.0  0.5  0.7529999999999999  0.5  1.0000
  Ti  Ti3       1.0  0.7529999999999999  0.5  0.75  1.0000
  Ti  Ti4       1.0  0.247  0.5  0.25  1.0000
  Mn  Mn1       1.0  0.0  0.242  0.0  1.0000
  Mn  Mn2       1.0  0.0  0.7579999999999999  0.5  1.0000
  Mn  Mn3       1.0  0.7579999999999999  0.0  0.75  1.0000
  Mn  Mn4       1.0  0.242  0.0  0.25  1.0000
  Mn  Mn5       1.0  0.241  0.241  0.625  1.0000
  Mn  Mn6       1.0  0.7589999999999999  0.7589999999999999  0.125  1.0000
  Mn  Mn7       1.0  0.7589999999999999  0.241  0.375  1.0000
  Mn  Mn8       1.0  0.241  0.7589999999999999  0.875  1.0000
