data_image0
_chemical_formula_structural       Ba6Co25S27
_chemical_formula_sum              "Ba6 Co25 S27"
_cell_length_a       10.033
_cell_length_b       10.033
_cell_length_c       10.033
_cell_angle_alpha    90.0
_cell_angle_beta     90.0
_cell_angle_gamma    90.0

_space_group_name_H-M_alt    "P 1"
_space_group_IT_number       1

loop_
  _space_group_symop_operation_xyz
  'x, y, z'

loop_
  _atom_site_type_symbol
  _atom_site_label
  _atom_site_symmetry_multiplicity
  _atom_site_fract_x
  _atom_site_fract_y
  _atom_site_fract_z
  _atom_site_occupancy
  Ba  Ba1       1.0  0.5  0.5  0.19603  1.0000
  Ba  Ba2       1.0  0.5  0.19603  0.5  1.0000
  Ba  Ba3       1.0  0.19603  0.5  0.5  1.0000
  Ba  Ba4       1.0  0.5  0.5  0.80397  1.0000
  Ba  Ba5       1.0  0.5  0.80397  0.5  1.0000
  Ba  Ba6       1.0  0.80397  0.5  0.5  1.0000
  Co  Co1       1.0  0.1322  0.36218  0.1322  1.0000
  Co  Co2       1.0  0.36218  0.1322  0.1322  1.0000
  Co  Co3       1.0  0.1322  0.1322  0.36218  1.0000
  Co  Co4       1.0  0.1322  0.6378200000000002  0.8678  1.0000
  Co  Co5       1.0  0.36218  0.8678  0.8678  1.0000
  Co  Co6       1.0  0.1322  0.8678  0.6378200000000002  1.0000
  Co  Co7       1.0  0.8678  0.36218  0.8678  1.0000
  Co  Co8       1.0  0.6378200000000002  0.1322  0.8678  1.0000
  Co  Co9       1.0  0.8678  0.1322  0.6378200000000002  1.0000
  Co  Co10      1.0  0.8678  0.6378200000000002  0.1322  1.0000
  Co  Co11      1.0  0.6378200000000002  0.8678  0.1322  1.0000
  Co  Co12      1.0  0.8678  0.8678  0.36218  1.0000
  Co  Co13      1.0  0.8678  0.6378200000000002  0.8678  1.0000
  Co  Co14      1.0  0.6378200000000002  0.8678  0.8678  1.0000
  Co  Co15      1.0  0.8678  0.8678  0.6378200000000002  1.0000
  Co  Co16      1.0  0.8678  0.36218  0.1322  1.0000
  Co  Co17      1.0  0.6378200000000002  0.1322  0.1322  1.0000
  Co  Co18      1.0  0.8678  0.1322  0.36218  1.0000
  Co  Co19      1.0  0.1322  0.6378200000000002  0.1322  1.0000
  Co  Co20      1.0  0.36218  0.8678  0.1322  1.0000
  Co  Co21      1.0  0.1322  0.8678  0.36218  1.0000
  Co  Co22      1.0  0.1322  0.36218  0.8678  1.0000
  Co  Co23      1.0  0.36218  0.1322  0.8678  1.0000
  Co  Co24      1.0  0.1322  0.1322  0.6378200000000002  1.0000
  Co  Co25      1.0  0.0  0.0  0.0  1.0000
  S   S1        1.0  0.5  0.5  0.5  1.0000
  S   S2        1.0  0.0  0.2361  0.0  1.0000
  S   S3        1.0  0.2361  0.0  0.0  1.0000
  S   S4        1.0  0.0  0.0  0.2361  1.0000
  S   S5        1.0  0.0  0.7639  0.0  1.0000
  S   S6        1.0  0.0  0.0  0.7639  1.0000
  S   S7        1.0  0.7639  0.0  0.0  1.0000
  S   S8        1.0  0.2767  0.2767  0.2767  1.0000
  S   S9        1.0  0.2767  0.7233  0.7233  1.0000
  S   S10       1.0  0.7233  0.2767  0.7233  1.0000
  S   S11       1.0  0.7233  0.7233  0.2767  1.0000
  S   S12       1.0  0.7233  0.7233  0.7233  1.0000
  S   S13       1.0  0.7233  0.2767  0.2767  1.0000
  S   S14       1.0  0.2767  0.7233  0.2767  1.0000
  S   S15       1.0  0.2767  0.2767  0.7233  1.0000
  S   S16       1.0  0.0  0.5  0.24619999999999997  1.0000
  S   S17       1.0  0.5  0.24619999999999997  0.0  1.0000
  S   S18       1.0  0.24619999999999997  0.0  0.5  1.0000
  S   S19       1.0  0.0  0.24619999999999997  0.5  1.0000
  S   S20       1.0  0.5  0.0  0.24619999999999997  1.0000
  S   S21       1.0  0.24619999999999997  0.5  0.0  1.0000
  S   S22       1.0  0.0  0.5  0.7538000000000001  1.0000
  S   S23       1.0  0.5  0.7538000000000001  0.0  1.0000
  S   S24       1.0  0.0  0.7538000000000001  0.5  1.0000
  S   S25       1.0  0.5  0.0  0.7538000000000001  1.0000
  S   S26       1.0  0.7538000000000001  0.0  0.5  1.0000
  S   S27       1.0  0.7538000000000001  0.5  0.0  1.0000
