data_image0
_chemical_formula_structural       Ni2P4O24H28
_chemical_formula_sum              "Ni2 P4 O24 H28"
_cell_length_a       9.3031
_cell_length_b       5.8892
_cell_length_c       9.762
_cell_angle_alpha    90.0
_cell_angle_beta     96.111
_cell_angle_gamma    90.0

_space_group_name_H-M_alt    "P 1"
_space_group_IT_number       1

loop_
  _space_group_symop_operation_xyz
  'x, y, z'

loop_
  _atom_site_type_symbol
  _atom_site_label
  _atom_site_symmetry_multiplicity
  _atom_site_fract_x
  _atom_site_fract_y
  _atom_site_fract_z
  _atom_site_occupancy
  Ni  Ni1       1.0  0.5  0.5  0.5  1.0000
  Ni  Ni2       1.0  0.0  0.0  0.0  1.0000
  P   P1        1.0  0.06859  0.14612  0.53007  1.0000
  P   P2        1.0  0.43141  0.64612  0.96993  1.0000
  P   P3        1.0  0.93141  0.8538800000000001  0.46992999999999996  1.0000
  P   P4        1.0  0.56859  0.35388  0.030070000000000045  1.0000
  O   O1        1.0  0.20361  0.05887  0.61176  1.0000
  O   O2        1.0  0.29639  0.55887  0.88824  1.0000
  O   O3        1.0  0.79639  0.94113  0.38824000000000003  1.0000
  O   O4        1.0  0.7036100000000001  0.44113  0.11175999999999986  1.0000
  O   O5        1.0  0.08555  0.28724  0.40289  1.0000
  O   O6        1.0  0.41445  0.7872399999999999  0.09710999999999997  1.0000
  O   O7        1.0  0.9144500000000001  0.7127600000000001  0.5971100000000001  1.0000
  O   O8        1.0  0.58555  0.21276000000000003  0.90289  1.0000
  O   O9        1.0  0.9760100000000002  0.28534  0.62787  1.0000
  O   O10       1.0  0.52399  0.7853399999999999  0.87213  1.0000
  O   O11       1.0  0.023990000000000008  0.7146600000000002  0.37212999999999996  1.0000
  O   O12       1.0  0.47601000000000004  0.21466000000000005  0.12787000000000015  1.0000
  O   O13       1.0  0.64678  0.6071  0.65421  1.0000
  O   O14       1.0  0.85322  0.10709999999999997  0.84579  1.0000
  O   O15       1.0  0.35322  0.3929000000000001  0.34579000000000004  1.0000
  O   O16       1.0  0.14678000000000013  0.8929  0.15420999999999996  1.0000
  O   O17       1.0  0.48685  0.20885  0.61392  1.0000
  O   O18       1.0  0.013150000000000009  0.70885  0.8860800000000001  1.0000
  O   O19       1.0  0.51315  0.79115  0.38608  1.0000
  O   O20       1.0  0.9868499999999999  0.29115  0.11392000000000002  1.0000
  O   O21       1.0  0.32539  0.62296  0.59655  1.0000
  O   O22       1.0  0.17461  0.12295999999999997  0.9034500000000001  1.0000
  O   O23       1.0  0.67461  0.37704000000000004  0.40345  1.0000
  O   O24       1.0  0.8253900000000001  0.87704  0.09655000000000014  1.0000
  H   H1        1.0  0.958  0.43600000000000005  0.605  1.0000
  H   H2        1.0  0.542  0.936  0.895  1.0000
  H   H3        1.0  0.042  0.564  0.395  1.0000
  H   H4        1.0  0.458  0.06399999999999995  0.105  1.0000
  H   H5        1.0  0.62  0.681  0.719  1.0000
  H   H6        1.0  0.88  0.18100000000000005  0.781  1.0000
  H   H7        1.0  0.38  0.31899999999999995  0.281  1.0000
  H   H8        1.0  0.1200000000000001  0.8190000000000001  0.2189999999999999  1.0000
  H   H9        1.0  0.7199999999999999  0.664  0.63  1.0000
  H   H10       1.0  0.7800000000000001  0.16400000000000015  0.8700000000000001  1.0000
  H   H11       1.0  0.28000000000000014  0.33599999999999997  0.37  1.0000
  H   H12       1.0  0.21999999999999975  0.836  0.1299999999999999  1.0000
  H   H13       1.0  0.407  0.154  0.607  1.0000
  H   H14       1.0  0.09300000000000003  0.654  0.893  1.0000
  H   H15       1.0  0.593  0.846  0.393  1.0000
  H   H16       1.0  0.907  0.34600000000000003  0.10699999999999998  1.0000
  H   H17       1.0  0.521  0.223  0.696  1.0000
  H   H18       1.0  0.979  0.723  0.8040000000000002  1.0000
  H   H19       1.0  0.479  0.7770000000000001  0.30400000000000005  1.0000
  H   H20       1.0  0.02099999999999991  0.277  0.19599999999999998  1.0000
  H   H21       1.0  0.296  0.7500000000000001  0.581  1.0000
  H   H22       1.0  0.20400000000000001  0.25  0.919  1.0000
  H   H23       1.0  0.704  0.2499999999999999  0.41900000000000004  1.0000
  H   H24       1.0  0.796  0.7499999999999999  0.08099999999999996  1.0000
  H   H25       1.0  0.313  0.584  0.678  1.0000
  H   H26       1.0  0.18700000000000003  0.08400000000000007  0.8220000000000001  1.0000
  H   H27       1.0  0.687  0.41600000000000004  0.32199999999999995  1.0000
  H   H28       1.0  0.813  0.916  0.17799999999999994  1.0000
