data_image0
_chemical_formula_structural       La4Ni2Ga24
_chemical_formula_sum              "La4 Ni2 Ga24"
_cell_length_a       6.073
_cell_length_b       6.073
_cell_length_c       15.547
_cell_angle_alpha    90.0
_cell_angle_beta     90.0
_cell_angle_gamma    90.0

_space_group_name_H-M_alt    "P 1"
_space_group_IT_number       1

loop_
  _space_group_symop_operation_xyz
  'x, y, z'

loop_
  _atom_site_type_symbol
  _atom_site_label
  _atom_site_symmetry_multiplicity
  _atom_site_fract_x
  _atom_site_fract_y
  _atom_site_fract_z
  _atom_site_occupancy
  La  La1       1.0  0.75  0.24999999999999994  0.24452999999999994  1.0000
  La  La2       1.0  0.75  0.24999999999999997  0.75547  1.0000
  La  La3       1.0  0.24999999999999997  0.75  0.75547  1.0000
  La  La4       1.0  0.24999999999999994  0.75  0.24452999999999994  1.0000
  Ni  Ni1       1.0  0.75  0.24999999999999994  0.0  1.0000
  Ni  Ni2       1.0  0.24999999999999997  0.75  0.0  1.0000
  Ga  Ga1       1.0  0.75  0.75  0.18022999999999995  1.0000
  Ga  Ga2       1.0  0.75  0.75  0.81977  1.0000
  Ga  Ga3       1.0  0.24999999999999997  0.24999999999999997  0.81977  1.0000
  Ga  Ga4       1.0  0.24999999999999997  0.24999999999999997  0.18022999999999995  1.0000
  Ga  Ga5       1.0  0.75  0.75  0.3393599999999999  1.0000
  Ga  Ga6       1.0  0.75  0.75  0.66064  1.0000
  Ga  Ga7       1.0  0.24999999999999997  0.24999999999999997  0.66064  1.0000
  Ga  Ga8       1.0  0.24999999999999997  0.24999999999999997  0.3393599999999999  1.0000
  Ga  Ga9       1.0  0.50037  0.00037  0.9171699999999999  1.0000
  Ga  Ga10      1.0  0.99963  0.49962999999999996  0.9171699999999999  1.0000
  Ga  Ga11      1.0  0.50037  0.49962999999999996  0.08283  1.0000
  Ga  Ga12      1.0  0.99963  0.00037  0.08283  1.0000
  Ga  Ga13      1.0  0.49962999999999996  0.99963  0.08283  1.0000
  Ga  Ga14      1.0  0.00037  0.50037  0.08283  1.0000
  Ga  Ga15      1.0  0.00037  0.99963  0.9171699999999999  1.0000
  Ga  Ga16      1.0  0.49962999999999996  0.50037  0.9171699999999999  1.0000
  Ga  Ga17      1.0  0.5668899999999999  0.06689  0.4279099999999999  1.0000
  Ga  Ga18      1.0  0.9331100000000001  0.43311  0.4279099999999999  1.0000
  Ga  Ga19      1.0  0.5668899999999999  0.43311  0.57209  1.0000
  Ga  Ga20      1.0  0.9331100000000001  0.06689  0.57209  1.0000
  Ga  Ga21      1.0  0.43311  0.9331100000000001  0.57209  1.0000
  Ga  Ga22      1.0  0.06689  0.5668899999999999  0.57209  1.0000
  Ga  Ga23      1.0  0.06689  0.9331100000000001  0.4279099999999999  1.0000
  Ga  Ga24      1.0  0.43311  0.5668899999999999  0.4279099999999999  1.0000
