data_image0
_chemical_formula_structural       Al8Be4O16
_chemical_formula_sum              "Al8 Be4 O16"
_cell_length_a       9.4019
_cell_length_b       5.4746
_cell_length_c       4.4259
_cell_angle_alpha    90.0
_cell_angle_beta     90.0
_cell_angle_gamma    90.0

_space_group_name_H-M_alt    "P 1"
_space_group_IT_number       1

loop_
  _space_group_symop_operation_xyz
  'x, y, z'

loop_
  _atom_site_type_symbol
  _atom_site_label
  _atom_site_symmetry_multiplicity
  _atom_site_fract_x
  _atom_site_fract_y
  _atom_site_fract_z
  _atom_site_occupancy
  Al  Al1       1.0  0.0  0.0  0.0  1.0000
  Al  Al2       1.0  0.5  0.0  0.5  1.0000
  Al  Al3       1.0  0.0  0.5  0.0  1.0000
  Al  Al4       1.0  0.5  0.5  0.5  1.0000
  Al  Al5       1.0  0.27283  0.25  0.99494  1.0000
  Al  Al6       1.0  0.22716999999999998  0.75  0.49494  1.0000
  Al  Al7       1.0  0.72717  0.75  0.00506  1.0000
  Al  Al8       1.0  0.7728300000000001  0.25  0.50506  1.0000
  Be  Be1       1.0  0.0928  0.25  0.4339  1.0000
  Be  Be2       1.0  0.4072  0.75  0.9338999999999998  1.0000
  Be  Be3       1.0  0.9072  0.75  0.5661  1.0000
  Be  Be4       1.0  0.5928  0.25  0.06609999999999999  1.0000
  O   O1        1.0  0.09034  0.25  0.7876999999999998  1.0000
  O   O2        1.0  0.40966  0.75  0.28769999999999984  1.0000
  O   O3        1.0  0.9096600000000001  0.75  0.21230000000000016  1.0000
  O   O4        1.0  0.5903400000000001  0.25  0.7123000000000002  1.0000
  O   O5        1.0  0.433  0.25  0.2414  1.0000
  O   O6        1.0  0.067  0.75  0.7414000000000001  1.0000
  O   O7        1.0  0.567  0.75  0.7585999999999998  1.0000
  O   O8        1.0  0.9329999999999999  0.25  0.2586  1.0000
  O   O9        1.0  0.16329  0.01543  0.25688  1.0000
  O   O10       1.0  0.33671  0.98457  0.75688  1.0000
  O   O11       1.0  0.8367100000000001  0.51543  0.74312  1.0000
  O   O12       1.0  0.66329  0.48457  0.24312  1.0000
  O   O13       1.0  0.8367100000000001  0.98457  0.74312  1.0000
  O   O14       1.0  0.66329  0.01543  0.24312  1.0000
  O   O15       1.0  0.16329  0.48457  0.25688  1.0000
  O   O16       1.0  0.33671  0.51543  0.75688  1.0000
