data_image0
_chemical_formula_structural       Fe12C4
_chemical_formula_sum              "Fe12 C4"
_cell_length_a       4.518
_cell_length_b       5.069
_cell_length_c       6.736
_cell_angle_alpha    90.0
_cell_angle_beta     90.0
_cell_angle_gamma    90.0

_space_group_name_H-M_alt    "P 1"
_space_group_IT_number       1

loop_
  _space_group_symop_operation_xyz
  'x, y, z'

loop_
  _atom_site_type_symbol
  _atom_site_label
  _atom_site_symmetry_multiplicity
  _atom_site_fract_x
  _atom_site_fract_y
  _atom_site_fract_z
  _atom_site_occupancy
  Fe  Fe1       1.0  0.33999999999999997  0.17  0.065  1.0000
  Fe  Fe2       1.0  0.16000000000000003  0.67  0.43499999999999994  1.0000
  Fe  Fe3       1.0  0.66  0.8299999999999998  0.565  1.0000
  Fe  Fe4       1.0  0.84  0.32999999999999996  0.9349999999999999  1.0000
  Fe  Fe5       1.0  0.66  0.8299999999999998  0.9349999999999999  1.0000
  Fe  Fe6       1.0  0.84  0.32999999999999996  0.565  1.0000
  Fe  Fe7       1.0  0.33999999999999997  0.17  0.43499999999999994  1.0000
  Fe  Fe8       1.0  0.16000000000000003  0.67  0.065  1.0000
  Fe  Fe9       1.0  0.84  0.05  0.24999999999999994  1.0000
  Fe  Fe10      1.0  0.66  0.55  0.24999999999999997  1.0000
  Fe  Fe11      1.0  0.16  0.95  0.7499999999999999  1.0000
  Fe  Fe12      1.0  0.33999999999999997  0.45  0.7499999999999999  1.0000
  C   C1        1.0  0.0  0.0  0.0  1.0000
  C   C2        1.0  0.5  0.5  0.49999999999999994  1.0000
  C   C3        1.0  0.0  0.0  0.49999999999999994  1.0000
  C   C4        1.0  0.5  0.5  0.0  1.0000
