data_image0
_chemical_formula_structural       Ge8S20
_chemical_formula_sum              "Ge8 S20"
_cell_length_a       8.621
_cell_length_b       9.899
_cell_length_c       10.009
_cell_angle_alpha    85.963
_cell_angle_beta     64.714
_cell_angle_gamma    89.501

_space_group_name_H-M_alt    "P 1"
_space_group_IT_number       1

loop_
  _space_group_symop_operation_xyz
  'x, y, z'

loop_
  _atom_site_type_symbol
  _atom_site_label
  _atom_site_symmetry_multiplicity
  _atom_site_fract_x
  _atom_site_fract_y
  _atom_site_fract_z
  _atom_site_occupancy
  Ge  Ge1       1.0  0.11415  0.22454999999999997  0.016599999999999948  1.0000
  Ge  Ge2       1.0  0.88585  0.7754499999999999  0.9834000000000002  1.0000
  Ge  Ge3       1.0  0.3788799999999999  0.50054  0.8207800000000002  1.0000
  Ge  Ge4       1.0  0.6211200000000001  0.49946  0.17921999999999993  1.0000
  Ge  Ge5       1.0  0.19461  0.30691  0.64886  1.0000
  Ge  Ge6       1.0  0.80539  0.69309  0.35114  1.0000
  Ge  Ge7       1.0  0.51602  0.17179  0.73589  1.0000
  Ge  Ge8       1.0  0.48397999999999997  0.82821  0.26410999999999996  1.0000
  S   S1        1.0  0.9871799999999998  0.22416  0.86288  1.0000
  S   S2        1.0  0.012820000000000026  0.77584  0.13712000000000002  1.0000
  S   S3        1.0  0.26871999999999996  0.52  0.6565300000000001  1.0000
  S   S4        1.0  0.73128  0.4799999999999999  0.34346999999999994  1.0000
  S   S5        1.0  0.32962  0.07933999999999997  0.95438  1.0000
  S   S6        1.0  0.67038  0.92066  0.045619999999999994  1.0000
  S   S7        1.0  0.41721  0.16945000000000002  0.56362  1.0000
  S   S8        1.0  0.5827899999999999  0.83055  0.43638  1.0000
  S   S9        1.0  0.6141699999999998  0.37547  0.7500200000000001  1.0000
  S   S10       1.0  0.3858300000000002  0.62453  0.24997999999999987  1.0000
  S   S11       1.0  0.18688000000000002  0.43037999999999993  0.047819999999999974  1.0000
  S   S12       1.0  0.8131199999999998  0.56962  0.95218  1.0000
  S   S13       1.0  0.08258999999999997  0.31282  0.48726  1.0000
  S   S14       1.0  0.9174100000000001  0.68718  0.51274  1.0000
  S   S15       1.0  0.9200599999999999  0.15262000000000003  0.2380800000000001  1.0000
  S   S16       1.0  0.07993999999999997  0.84738  0.76192  1.0000
  S   S17       1.0  0.7372499999999998  0.03624  0.6663  1.0000
  S   S18       1.0  0.26275000000000015  0.9637599999999998  0.3337  1.0000
  S   S19       1.0  0.45932999999999996  0.70827  0.83379  1.0000
  S   S20       1.0  0.54067  0.29173000000000004  0.16620999999999997  1.0000
