data_image0
_chemical_formula_structural       Fe8B4
_chemical_formula_sum              "Fe8 B4"
_cell_length_a       5.078
_cell_length_b       5.078
_cell_length_c       4.223
_cell_angle_alpha    90.0
_cell_angle_beta     90.0
_cell_angle_gamma    90.0

_space_group_name_H-M_alt    "P 1"
_space_group_IT_number       1

loop_
  _space_group_symop_operation_xyz
  'x, y, z'

loop_
  _atom_site_type_symbol
  _atom_site_label
  _atom_site_symmetry_multiplicity
  _atom_site_fract_x
  _atom_site_fract_y
  _atom_site_fract_z
  _atom_site_occupancy
  Fe  Fe1       1.0  0.1667  0.1667  0.2  1.0000
  Fe  Fe2       1.0  0.8332999999999999  0.8332999999999999  0.2  1.0000
  Fe  Fe3       1.0  0.8332999999999999  0.1667  0.8  1.0000
  Fe  Fe4       1.0  0.1667  0.8332999999999999  0.8  1.0000
  Fe  Fe5       1.0  0.6667  0.6667  0.7  1.0000
  Fe  Fe6       1.0  0.33330000000000004  0.33330000000000004  0.7  1.0000
  Fe  Fe7       1.0  0.33330000000000004  0.6667  0.3  1.0000
  Fe  Fe8       1.0  0.6667  0.33330000000000004  0.3  1.0000
  B   B1        1.0  0.0  0.0  0.0  1.0000
  B   B2        1.0  0.5  0.5  0.5  1.0000
  B   B3        1.0  0.0  0.0  0.5  1.0000
  B   B4        1.0  0.5  0.5  0.0  1.0000
