data_image0
_chemical_formula_structural       Cu2Al2Br8
_chemical_formula_sum              "Cu2 Al2 Br8"
_cell_length_a       5.7321
_cell_length_b       5.7321
_cell_length_c       10.6046
_cell_angle_alpha    90.0
_cell_angle_beta     90.0
_cell_angle_gamma    90.0

_space_group_name_H-M_alt    "P 1"
_space_group_IT_number       1

loop_
  _space_group_symop_operation_xyz
  'x, y, z'

loop_
  _atom_site_type_symbol
  _atom_site_label
  _atom_site_symmetry_multiplicity
  _atom_site_fract_x
  _atom_site_fract_y
  _atom_site_fract_z
  _atom_site_occupancy
  Cu  Cu1       1.0  0.5  0.5  0.4999999999999999  1.0000
  Cu  Cu2       1.0  0.5  0.5  5.551115123125782e-17  1.0000
  Al  Al1       1.0  0.5  0.0  0.24999999999999994  1.0000
  Al  Al2       1.0  0.0  0.5  0.75  1.0000
  Br  Br1       1.0  0.74091  0.22883000000000003  0.37257  1.0000
  Br  Br2       1.0  0.22883000000000003  0.25909000000000004  0.6274299999999998  1.0000
  Br  Br3       1.0  0.25909000000000004  0.7711699999999999  0.37257  1.0000
  Br  Br4       1.0  0.7711699999999999  0.74091  0.6274299999999998  1.0000
  Br  Br5       1.0  0.25909000000000004  0.22883000000000003  0.12742999999999996  1.0000
  Br  Br6       1.0  0.7711699999999999  0.25909000000000004  0.87257  1.0000
  Br  Br7       1.0  0.74091  0.7711699999999999  0.12742999999999996  1.0000
  Br  Br8       1.0  0.22883000000000003  0.74091  0.87257  1.0000
