data_image0
_chemical_formula_structural       B8Ca8Ga8O32
_chemical_formula_sum              "B8 Ca8 Ga8 O32"
_cell_length_a       15.473
_cell_length_b       8.294
_cell_length_c       5.8392
_cell_angle_alpha    90.0
_cell_angle_beta     90.0
_cell_angle_gamma    90.0

_space_group_name_H-M_alt    "P 1"
_space_group_IT_number       1

loop_
  _space_group_symop_operation_xyz
  'x, y, z'

loop_
  _atom_site_type_symbol
  _atom_site_label
  _atom_site_symmetry_multiplicity
  _atom_site_fract_x
  _atom_site_fract_y
  _atom_site_fract_z
  _atom_site_occupancy
  B   B1        1.0  0.405  0.728  0.357  1.0000
  B   B2        1.0  0.595  0.272  0.357  1.0000
  B   B3        1.0  0.405  0.272  0.8570000000000001  1.0000
  B   B4        1.0  0.595  0.728  0.8570000000000001  1.0000
  B   B5        1.0  0.905  0.228  0.357  1.0000
  B   B6        1.0  0.09499999999999997  0.772  0.357  1.0000
  B   B7        1.0  0.905  0.772  0.8570000000000001  1.0000
  B   B8        1.0  0.09499999999999997  0.228  0.8570000000000001  1.0000
  Ca  Ca1       1.0  0.411  0.8560000000000002  0.898  1.0000
  Ca  Ca2       1.0  0.589  0.14399999999999993  0.898  1.0000
  Ca  Ca3       1.0  0.411  0.14399999999999993  0.398  1.0000
  Ca  Ca4       1.0  0.589  0.8560000000000002  0.398  1.0000
  Ca  Ca5       1.0  0.911  0.3560000000000001  0.898  1.0000
  Ca  Ca6       1.0  0.08900000000000002  0.6439999999999999  0.898  1.0000
  Ca  Ca7       1.0  0.911  0.6439999999999999  0.398  1.0000
  Ca  Ca8       1.0  0.08900000000000002  0.3560000000000001  0.398  1.0000
  Ga  Ga1       1.0  0.2948999999999999  0.4869  0.141  1.0000
  Ga  Ga2       1.0  0.7051000000000001  0.5131000000000001  0.141  1.0000
  Ga  Ga3       1.0  0.2948999999999999  0.5131000000000001  0.641  1.0000
  Ga  Ga4       1.0  0.7051000000000001  0.4869  0.641  1.0000
  Ga  Ga5       1.0  0.7948999999999999  0.9869000000000001  0.141  1.0000
  Ga  Ga6       1.0  0.20510000000000003  0.0131  0.141  1.0000
  Ga  Ga7       1.0  0.7948999999999999  0.0131  0.641  1.0000
  Ga  Ga8       1.0  0.20510000000000003  0.9869000000000001  0.641  1.0000
  O   O1        1.0  0.2365  0.4666  0.398  1.0000
  O   O2        1.0  0.7635000000000001  0.5334  0.398  1.0000
  O   O3        1.0  0.2365  0.5334  0.898  1.0000
  O   O4        1.0  0.7635000000000001  0.4666  0.898  1.0000
  O   O5        1.0  0.7364999999999999  0.9666000000000001  0.398  1.0000
  O   O6        1.0  0.2635  0.03339999999999999  0.398  1.0000
  O   O7        1.0  0.7364999999999999  0.03339999999999999  0.898  1.0000
  O   O8        1.0  0.2635  0.9666000000000001  0.898  1.0000
  O   O9        1.0  0.44119999999999987  0.8743  0.31800000000000006  1.0000
  O   O10       1.0  0.5588  0.12570000000000003  0.31800000000000006  1.0000
  O   O11       1.0  0.44119999999999987  0.12570000000000003  0.8180000000000001  1.0000
  O   O12       1.0  0.5588  0.8743  0.8180000000000001  1.0000
  O   O13       1.0  0.9411999999999998  0.37429999999999986  0.31800000000000006  1.0000
  O   O14       1.0  0.05880000000000007  0.6257000000000001  0.31800000000000006  1.0000
  O   O15       1.0  0.9411999999999998  0.6257000000000001  0.8180000000000001  1.0000
  O   O16       1.0  0.05880000000000007  0.37429999999999986  0.8180000000000001  1.0000
  O   O17       1.0  0.3685  0.6733  0.155  1.0000
  O   O18       1.0  0.6315  0.32670000000000005  0.155  1.0000
  O   O19       1.0  0.3685  0.32670000000000005  0.655  1.0000
  O   O20       1.0  0.6315  0.6733  0.655  1.0000
  O   O21       1.0  0.8685  0.17330000000000004  0.155  1.0000
  O   O22       1.0  0.1315  0.8267000000000001  0.155  1.0000
  O   O23       1.0  0.8685  0.8267000000000001  0.655  1.0000
  O   O24       1.0  0.1315  0.17330000000000004  0.655  1.0000
  O   O25       1.0  0.3753  0.6933000000000001  0.567  1.0000
  O   O26       1.0  0.6247  0.30669999999999986  0.567  1.0000
  O   O27       1.0  0.3753  0.30669999999999986  0.06699999999999995  1.0000
  O   O28       1.0  0.6247  0.6933000000000001  0.06699999999999995  1.0000
  O   O29       1.0  0.8753  0.19330000000000028  0.567  1.0000
  O   O30       1.0  0.12469999999999996  0.8066999999999999  0.567  1.0000
  O   O31       1.0  0.8753  0.8066999999999999  0.06699999999999995  1.0000
  O   O32       1.0  0.12469999999999996  0.19330000000000028  0.06699999999999995  1.0000
