data_image0
_chemical_formula_structural       Sn24S56
_chemical_formula_sum              "Sn24 S56"
_cell_length_a       22.964
_cell_length_b       13.206
_cell_length_c       16.105
_cell_angle_alpha    90.0
_cell_angle_beta     108.42999999999999
_cell_angle_gamma    90.0

_space_group_name_H-M_alt    "P 1"
_space_group_IT_number       1

loop_
  _space_group_symop_operation_xyz
  'x, y, z'

loop_
  _atom_site_type_symbol
  _atom_site_label
  _atom_site_symmetry_multiplicity
  _atom_site_fract_x
  _atom_site_fract_y
  _atom_site_fract_z
  _atom_site_occupancy
  Sn  Sn1       1.0  0.42599999999999993  0.1607  0.26  1.0000
  Sn  Sn2       1.0  0.574  0.1607  0.24  1.0000
  Sn  Sn3       1.0  0.9259999999999998  0.6607000000000001  0.26  1.0000
  Sn  Sn4       1.0  0.07400000000000007  0.6607000000000001  0.24  1.0000
  Sn  Sn5       1.0  0.574  0.8392999999999999  0.74  1.0000
  Sn  Sn6       1.0  0.426  0.8392999999999999  0.7600000000000001  1.0000
  Sn  Sn7       1.0  0.07400000000000007  0.33930000000000005  0.74  1.0000
  Sn  Sn8       1.0  0.9259999999999998  0.33930000000000005  0.7600000000000001  1.0000
  Sn  Sn9       1.0  0.28665  0.03375  0.25875  1.0000
  Sn  Sn10      1.0  0.7133499999999998  0.03375  0.24125000000000002  1.0000
  Sn  Sn11      1.0  0.7866500000000001  0.53375  0.25875  1.0000
  Sn  Sn12      1.0  0.21334999999999998  0.53375  0.24125000000000002  1.0000
  Sn  Sn13      1.0  0.7133499999999998  0.96625  0.74125  1.0000
  Sn  Sn14      1.0  0.28665  0.96625  0.75875  1.0000
  Sn  Sn15      1.0  0.21334999999999998  0.46625  0.74125  1.0000
  Sn  Sn16      1.0  0.7866500000000001  0.46625  0.75875  1.0000
  Sn  Sn17      1.0  0.29389999999999994  0.30585  0.26015  1.0000
  Sn  Sn18      1.0  0.7061000000000001  0.30585  0.23985  1.0000
  Sn  Sn19      1.0  0.7938999999999998  0.80585  0.26015  1.0000
  Sn  Sn20      1.0  0.20610000000000003  0.80585  0.23985  1.0000
  Sn  Sn21      1.0  0.7061000000000001  0.6941500000000002  0.73985  1.0000
  Sn  Sn22      1.0  0.29389999999999994  0.6941500000000002  0.76015  1.0000
  Sn  Sn23      1.0  0.20610000000000003  0.19415  0.73985  1.0000
  Sn  Sn24      1.0  0.7938999999999998  0.19415  0.76015  1.0000
  S   S1        1.0  0.31274999999999986  0.16785  0.1548  1.0000
  S   S2        1.0  0.6872500000000001  0.16785  0.34520000000000006  1.0000
  S   S3        1.0  0.8127499999999998  0.66785  0.1548  1.0000
  S   S4        1.0  0.18725000000000008  0.66785  0.34520000000000006  1.0000
  S   S5        1.0  0.6872500000000001  0.8321500000000001  0.8452  1.0000
  S   S6        1.0  0.31274999999999986  0.8321500000000001  0.6548  1.0000
  S   S7        1.0  0.18725000000000008  0.33215  0.8452  1.0000
  S   S8        1.0  0.8127499999999998  0.33215  0.6548  1.0000
  S   S9        1.0  0.24564999999999995  0.1742  0.3227  1.0000
  S   S10       1.0  0.7543500000000001  0.1742  0.1773  1.0000
  S   S11       1.0  0.7456499999999998  0.6742000000000001  0.3227  1.0000
  S   S12       1.0  0.25435  0.6742000000000001  0.1773  1.0000
  S   S13       1.0  0.7543500000000001  0.8258  0.6773  1.0000
  S   S14       1.0  0.24564999999999998  0.8258  0.8227000000000001  1.0000
  S   S15       1.0  0.25435  0.32580000000000003  0.6773  1.0000
  S   S16       1.0  0.7456499999999998  0.32580000000000003  0.8227000000000001  1.0000
  S   S17       1.0  0.39774999999999994  0.00795  0.32505  1.0000
  S   S18       1.0  0.60225  0.00795  0.17495  1.0000
  S   S19       1.0  0.8977499999999998  0.50795  0.32505  1.0000
  S   S20       1.0  0.10225000000000006  0.50795  0.17495  1.0000
  S   S21       1.0  0.6022500000000001  0.99205  0.67495  1.0000
  S   S22       1.0  0.39774999999999994  0.99205  0.8250500000000001  1.0000
  S   S23       1.0  0.1022500000000001  0.49205  0.67495  1.0000
  S   S24       1.0  0.8977499999999998  0.49205  0.8250500000000001  1.0000
  S   S25       1.0  0.4046  0.3187  0.3224  1.0000
  S   S26       1.0  0.5953999999999999  0.3187  0.17759999999999998  1.0000
  S   S27       1.0  0.9046  0.8187  0.3224  1.0000
  S   S28       1.0  0.09539999999999997  0.8187  0.17759999999999998  1.0000
  S   S29       1.0  0.5953999999999999  0.6813  0.6776  1.0000
  S   S30       1.0  0.4046  0.6813  0.8224  1.0000
  S   S31       1.0  0.09539999999999997  0.18130000000000002  0.6776  1.0000
  S   S32       1.0  0.9046  0.18130000000000002  0.8224  1.0000
  S   S33       1.0  0.2747  0.4361  0.36365000000000003  1.0000
  S   S34       1.0  0.7253000000000001  0.4361  0.13634999999999997  1.0000
  S   S35       1.0  0.7746999999999998  0.9361  0.36365000000000003  1.0000
  S   S36       1.0  0.2253  0.9361  0.13634999999999997  1.0000
  S   S37       1.0  0.7253000000000001  0.5639000000000001  0.63635  1.0000
  S   S38       1.0  0.2747  0.5639000000000001  0.86365  1.0000
  S   S39       1.0  0.2253  0.06390000000000001  0.63635  1.0000
  S   S40       1.0  0.7746999999999998  0.06390000000000001  0.86365  1.0000
  S   S41       1.0  0.4651  0.15545  0.1403  1.0000
  S   S42       1.0  0.5348999999999999  0.15545  0.3597000000000001  1.0000
  S   S43       1.0  0.9651  0.65545  0.1403  1.0000
  S   S44       1.0  0.034899999999999994  0.65545  0.3597000000000001  1.0000
  S   S45       1.0  0.5348999999999999  0.84455  0.8597  1.0000
  S   S46       1.0  0.4651  0.84455  0.6403  1.0000
  S   S47       1.0  0.03489999999999997  0.34455  0.8597  1.0000
  S   S48       1.0  0.9651  0.34455  0.6403  1.0000
  S   S49       1.0  0.23905  0.4086  0.14095  1.0000
  S   S50       1.0  0.7609499999999999  0.4086  0.35905  1.0000
  S   S51       1.0  0.73905  0.9086000000000001  0.14095  1.0000
  S   S52       1.0  0.26095  0.9086000000000001  0.35905  1.0000
  S   S53       1.0  0.7609499999999999  0.5913999999999999  0.85905  1.0000
  S   S54       1.0  0.23905  0.5913999999999999  0.64095  1.0000
  S   S55       1.0  0.26095  0.0914  0.85905  1.0000
  S   S56       1.0  0.73905  0.0914  0.64095  1.0000
