data_image0
_chemical_formula_structural       Bi8Pd4O16
_chemical_formula_sum              "Bi8 Pd4 O16"
_cell_length_a       8.623
_cell_length_b       8.623
_cell_length_c       5.909
_cell_angle_alpha    90.0
_cell_angle_beta     90.0
_cell_angle_gamma    90.0

_space_group_name_H-M_alt    "P 1"
_space_group_IT_number       1

loop_
  _space_group_symop_operation_xyz
  'x, y, z'

loop_
  _atom_site_type_symbol
  _atom_site_label
  _atom_site_symmetry_multiplicity
  _atom_site_fract_x
  _atom_site_fract_y
  _atom_site_fract_z
  _atom_site_occupancy
  Bi  Bi1       1.0  0.1778  0.3222  0.0  1.0000
  Bi  Bi2       1.0  0.8222  0.6778  0.0  1.0000
  Bi  Bi3       1.0  0.3222  0.8222  0.0  1.0000
  Bi  Bi4       1.0  0.6778  0.1778  0.0  1.0000
  Bi  Bi5       1.0  0.6778  0.8222  0.5  1.0000
  Bi  Bi6       1.0  0.3222  0.1778  0.5  1.0000
  Bi  Bi7       1.0  0.8222  0.3222  0.5  1.0000
  Bi  Bi8       1.0  0.1778  0.6778  0.5  1.0000
  Pd  Pd1       1.0  0.0  0.0  0.1699  1.0000
  Pd  Pd2       1.0  0.5  0.5  0.1699  1.0000
  Pd  Pd3       1.0  0.5  0.5  0.6698999999999999  1.0000
  Pd  Pd4       1.0  0.0  0.0  0.6698999999999999  1.0000
  O   O1        1.0  0.21  0.098  0.15  1.0000
  O   O2        1.0  0.79  0.902  0.15  1.0000
  O   O3        1.0  0.29000000000000004  0.598  0.15  1.0000
  O   O4        1.0  0.71  0.402  0.15  1.0000
  O   O5        1.0  0.902  0.21  0.15  1.0000
  O   O6        1.0  0.098  0.79  0.15  1.0000
  O   O7        1.0  0.402  0.29000000000000004  0.15  1.0000
  O   O8        1.0  0.598  0.71  0.15  1.0000
  O   O9        1.0  0.71  0.598  0.65  1.0000
  O   O10       1.0  0.29000000000000004  0.402  0.65  1.0000
  O   O11       1.0  0.79  0.098  0.65  1.0000
  O   O12       1.0  0.21  0.902  0.65  1.0000
  O   O13       1.0  0.402  0.71  0.65  1.0000
  O   O14       1.0  0.598  0.29000000000000004  0.65  1.0000
  O   O15       1.0  0.902  0.79  0.65  1.0000
  O   O16       1.0  0.098  0.21  0.65  1.0000
