data_image0
_chemical_formula_structural       O64Mo12Y20
_chemical_formula_sum              "O64 Mo12 Y20"
_cell_length_a       10.688
_cell_length_b       10.688
_cell_length_c       10.688
_cell_angle_alpha    90.0
_cell_angle_beta     90.0
_cell_angle_gamma    90.0

_space_group_name_H-M_alt    "P 1"
_space_group_IT_number       1

loop_
  _space_group_symop_operation_xyz
  'x, y, z'

loop_
  _atom_site_type_symbol
  _atom_site_label
  _atom_site_symmetry_multiplicity
  _atom_site_fract_x
  _atom_site_fract_y
  _atom_site_fract_z
  _atom_site_occupancy
  O   O1        1.0  0.328  0.0874  0.8644999999999998  1.0000
  O   O2        1.0  0.328  0.41259999999999997  0.6355  1.0000
  O   O3        1.0  0.172  0.0874  0.6355  1.0000
  O   O4        1.0  0.172  0.41259999999999997  0.8644999999999998  1.0000
  O   O5        1.0  0.828  0.3645  0.5874  1.0000
  O   O6        1.0  0.828  0.13550000000000006  0.9125999999999999  1.0000
  O   O7        1.0  0.6719999999999998  0.3645  0.9125999999999999  1.0000
  O   O8        1.0  0.6719999999999998  0.13550000000000006  0.5874  1.0000
  O   O9        1.0  0.0874  0.8644999999999998  0.328  1.0000
  O   O10       1.0  0.41259999999999997  0.6355  0.328  1.0000
  O   O11       1.0  0.0874  0.6355  0.172  1.0000
  O   O12       1.0  0.41259999999999997  0.8644999999999998  0.172  1.0000
  O   O13       1.0  0.3645  0.5874  0.828  1.0000
  O   O14       1.0  0.13550000000000006  0.9125999999999999  0.828  1.0000
  O   O15       1.0  0.3645  0.9125999999999999  0.6719999999999998  1.0000
  O   O16       1.0  0.13550000000000006  0.5874  0.6719999999999998  1.0000
  O   O17       1.0  0.8644999999999998  0.328  0.0874  1.0000
  O   O18       1.0  0.6355  0.328  0.41259999999999997  1.0000
  O   O19       1.0  0.6355  0.172  0.0874  1.0000
  O   O20       1.0  0.8644999999999998  0.172  0.41259999999999997  1.0000
  O   O21       1.0  0.5874  0.828  0.3645  1.0000
  O   O22       1.0  0.9125999999999999  0.828  0.13550000000000006  1.0000
  O   O23       1.0  0.9125999999999999  0.6719999999999998  0.3645  1.0000
  O   O24       1.0  0.5874  0.6719999999999998  0.13550000000000006  1.0000
  O   O25       1.0  0.6719999999999998  0.9125999999999999  0.13550000000000006  1.0000
  O   O26       1.0  0.6719999999999998  0.5874  0.3645  1.0000
  O   O27       1.0  0.828  0.9125999999999999  0.3645  1.0000
  O   O28       1.0  0.828  0.5874  0.13550000000000006  1.0000
  O   O29       1.0  0.172  0.6355  0.41259999999999997  1.0000
  O   O30       1.0  0.172  0.8644999999999998  0.0874  1.0000
  O   O31       1.0  0.328  0.6355  0.0874  1.0000
  O   O32       1.0  0.328  0.8644999999999998  0.41259999999999997  1.0000
  O   O33       1.0  0.9125999999999999  0.13550000000000006  0.6719999999999998  1.0000
  O   O34       1.0  0.5874  0.3645  0.6719999999999998  1.0000
  O   O35       1.0  0.9125999999999999  0.3645  0.828  1.0000
  O   O36       1.0  0.5874  0.13550000000000006  0.828  1.0000
  O   O37       1.0  0.6355  0.41259999999999997  0.172  1.0000
  O   O38       1.0  0.8644999999999998  0.0874  0.172  1.0000
  O   O39       1.0  0.6355  0.0874  0.328  1.0000
  O   O40       1.0  0.8644999999999998  0.41259999999999997  0.328  1.0000
  O   O41       1.0  0.13550000000000006  0.6719999999999998  0.9125999999999999  1.0000
  O   O42       1.0  0.3645  0.6719999999999998  0.5874  1.0000
  O   O43       1.0  0.3645  0.828  0.9125999999999999  1.0000
  O   O44       1.0  0.13550000000000006  0.828  0.5874  1.0000
  O   O45       1.0  0.41259999999999997  0.172  0.6355  1.0000
  O   O46       1.0  0.0874  0.172  0.8644999999999998  1.0000
  O   O47       1.0  0.0874  0.328  0.6355  1.0000
  O   O48       1.0  0.41259999999999997  0.328  0.8644999999999998  1.0000
  O   O49       1.0  0.11959999999999998  0.11959999999999998  0.11959999999999998  1.0000
  O   O50       1.0  0.11959999999999998  0.3804  0.3804  1.0000
  O   O51       1.0  0.3804  0.11959999999999998  0.3804  1.0000
  O   O52       1.0  0.3804  0.3804  0.11959999999999998  1.0000
  O   O53       1.0  0.6195999999999998  0.6195999999999998  0.6195999999999998  1.0000
  O   O54       1.0  0.6195999999999998  0.8804  0.8804  1.0000
  O   O55       1.0  0.8804  0.6195999999999998  0.8804  1.0000
  O   O56       1.0  0.8804  0.8804  0.6195999999999998  1.0000
  O   O57       1.0  0.8804  0.8804  0.8804  1.0000
  O   O58       1.0  0.8804  0.6195999999999998  0.6195999999999998  1.0000
  O   O59       1.0  0.6195999999999998  0.8804  0.6195999999999998  1.0000
  O   O60       1.0  0.6195999999999998  0.6195999999999998  0.8804  1.0000
  O   O61       1.0  0.3804  0.3804  0.3804  1.0000
  O   O62       1.0  0.3804  0.11959999999999998  0.11959999999999998  1.0000
  O   O63       1.0  0.11959999999999998  0.3804  0.11959999999999998  1.0000
  O   O64       1.0  0.11959999999999998  0.11959999999999998  0.3804  1.0000
  Mo  Mo1       1.0  0.0  0.7499999999999999  0.24999999999999994  1.0000
  Mo  Mo2       1.0  0.49999999999999994  0.7499999999999999  0.24999999999999997  1.0000
  Mo  Mo3       1.0  0.7499999999999999  0.24999999999999994  0.0  1.0000
  Mo  Mo4       1.0  0.7499999999999999  0.24999999999999997  0.49999999999999994  1.0000
  Mo  Mo5       1.0  0.24999999999999994  0.0  0.7499999999999999  1.0000
  Mo  Mo6       1.0  0.24999999999999997  0.49999999999999994  0.7499999999999999  1.0000
  Mo  Mo7       1.0  0.0  0.2500000000000001  0.7499999999999999  1.0000
  Mo  Mo8       1.0  0.49999999999999994  0.2500000000000001  0.7499999999999999  1.0000
  Mo  Mo9       1.0  0.2500000000000001  0.7499999999999999  0.0  1.0000
  Mo  Mo10      1.0  0.2500000000000001  0.7499999999999999  0.49999999999999994  1.0000
  Mo  Mo11      1.0  0.7499999999999999  0.0  0.2500000000000001  1.0000
  Mo  Mo12      1.0  0.7499999999999999  0.49999999999999994  0.2500000000000001  1.0000
  Y   Y1        1.0  0.0139  0.24999999999999994  0.24999999999999994  1.0000
  Y   Y2        1.0  0.4861  0.24999999999999994  0.24999999999999997  1.0000
  Y   Y3        1.0  0.5138999999999999  0.7499999999999999  0.7499999999999999  1.0000
  Y   Y4        1.0  0.9861  0.7499999999999999  0.7499999999999999  1.0000
  Y   Y5        1.0  0.24999999999999994  0.24999999999999994  0.0139  1.0000
  Y   Y6        1.0  0.24999999999999994  0.24999999999999997  0.4861  1.0000
  Y   Y7        1.0  0.7499999999999999  0.7499999999999999  0.5138999999999999  1.0000
  Y   Y8        1.0  0.7499999999999999  0.7499999999999999  0.9861  1.0000
  Y   Y9        1.0  0.24999999999999994  0.0139  0.24999999999999994  1.0000
  Y   Y10       1.0  0.24999999999999997  0.4861  0.24999999999999994  1.0000
  Y   Y11       1.0  0.7499999999999999  0.5138999999999999  0.7499999999999999  1.0000
  Y   Y12       1.0  0.7499999999999999  0.9861  0.7499999999999999  1.0000
  Y   Y13       1.0  0.0  0.0  0.0  0.5000
  Y   Y14       1.0  0.0  0.49999999999999994  0.49999999999999994  0.5000
  Y   Y15       1.0  0.49999999999999994  0.0  0.49999999999999994  0.5000
  Y   Y16       1.0  0.49999999999999994  0.49999999999999994  0.0  0.5000
  Y   Y17       1.0  0.49999999999999994  0.49999999999999994  0.49999999999999994  0.5000
  Y   Y18       1.0  0.49999999999999994  0.0  0.0  0.5000
  Y   Y19       1.0  0.0  0.49999999999999994  0.0  0.5000
  Y   Y20       1.0  0.0  0.0  0.49999999999999994  0.5000
  Cd  Cd1       1.0  0.0  0.0  0.0  0.5000
  Cd  Cd2       1.0  0.0  0.49999999999999994  0.49999999999999994  0.5000
  Cd  Cd3       1.0  0.49999999999999994  0.0  0.49999999999999994  0.5000
  Cd  Cd4       1.0  0.49999999999999994  0.49999999999999994  0.0  0.5000
  Cd  Cd5       1.0  0.49999999999999994  0.49999999999999994  0.49999999999999994  0.5000
  Cd  Cd6       1.0  0.49999999999999994  0.0  0.0  0.5000
  Cd  Cd7       1.0  0.0  0.49999999999999994  0.0  0.5000
  Cd  Cd8       1.0  0.0  0.0  0.49999999999999994  0.5000
