data_image0
_chemical_formula_structural       Hg4P16O48Li8
_chemical_formula_sum              "Hg4 P16 O48 Li8"
_cell_length_a       9.525
_cell_length_b       9.989
_cell_length_c       9.461000000000002
_cell_angle_alpha    90.0
_cell_angle_beta     92.01000000000002
_cell_angle_gamma    90.0

_space_group_name_H-M_alt    "P 1"
_space_group_IT_number       1

loop_
  _space_group_symop_operation_xyz
  'x, y, z'

loop_
  _atom_site_type_symbol
  _atom_site_label
  _atom_site_symmetry_multiplicity
  _atom_site_fract_x
  _atom_site_fract_y
  _atom_site_fract_z
  _atom_site_occupancy
  Hg  Hg1       1.0  0.51198  0.30962  0.25329  1.0000
  Hg  Hg2       1.0  0.98802  0.80962  0.74671  1.0000
  Hg  Hg3       1.0  0.48802000000000006  0.69038  0.74671  1.0000
  Hg  Hg4       1.0  0.011979999999999881  0.19038  0.25329  1.0000
  P   P1        1.0  0.22749999999999998  0.4653  0.2366  1.0000
  P   P2        1.0  0.2725  0.9653  0.7634  1.0000
  P   P3        1.0  0.7725  0.5347  0.7634  1.0000
  P   P4        1.0  0.7275  0.03470000000000001  0.2366  1.0000
  P   P5        1.0  0.2996  0.10119999999999998  0.49399999999999994  1.0000
  P   P6        1.0  0.20040000000000002  0.6012  0.506  1.0000
  P   P7        1.0  0.7004  0.8988  0.506  1.0000
  P   P8        1.0  0.7996000000000001  0.39880000000000004  0.49399999999999994  1.0000
  P   P9        1.0  0.3027  0.9023999999999999  0.2674  1.0000
  P   P10       1.0  0.19729999999999998  0.4023999999999999  0.7325999999999999  1.0000
  P   P11       1.0  0.6973000000000001  0.09760000000000013  0.7325999999999999  1.0000
  P   P12       1.0  0.8027  0.5976000000000001  0.2674  1.0000
  P   P13       1.0  0.2944  0.10680000000000002  0.0359  1.0000
  P   P14       1.0  0.2056  0.6068  0.9641  1.0000
  P   P15       1.0  0.7056  0.8932  0.9641  1.0000
  P   P16       1.0  0.7944000000000001  0.3932  0.0359  1.0000
  O   O1        1.0  0.1818  0.327  0.2636  1.0000
  O   O2        1.0  0.31820000000000004  0.827  0.7363999999999999  1.0000
  O   O3        1.0  0.8182  0.673  0.7363999999999999  1.0000
  O   O4        1.0  0.6818  0.173  0.2636  1.0000
  O   O5        1.0  0.3828  0.486  0.2415  1.0000
  O   O6        1.0  0.11720000000000003  0.986  0.7585  1.0000
  O   O7        1.0  0.6172  0.514  0.7585  1.0000
  O   O8        1.0  0.8828  0.014000000000000012  0.2415  1.0000
  O   O9        1.0  0.158  0.5636  0.3439  1.0000
  O   O10       1.0  0.34199999999999997  0.0636000000000001  0.6561  1.0000
  O   O11       1.0  0.842  0.43639999999999995  0.6561  1.0000
  O   O12       1.0  0.658  0.9364  0.3439  1.0000
  O   O13       1.0  0.1588  0.5144  0.093  1.0000
  O   O14       1.0  0.3412  0.01439999999999997  0.907  1.0000
  O   O15       1.0  0.8412000000000001  0.4856  0.907  1.0000
  O   O16       1.0  0.6588  0.9856  0.093  1.0000
  O   O17       1.0  0.1454  0.1146  0.47779999999999995  1.0000
  O   O18       1.0  0.3546000000000001  0.6146  0.5222  1.0000
  O   O19       1.0  0.8546  0.8854  0.5222  1.0000
  O   O20       1.0  0.6454  0.3854  0.47779999999999995  1.0000
  O   O21       1.0  0.39470000000000005  0.21369999999999997  0.4612  1.0000
  O   O22       1.0  0.10529999999999994  0.7137  0.5388  1.0000
  O   O23       1.0  0.6053  0.7863  0.5388  1.0000
  O   O24       1.0  0.8947  0.2863  0.4612  1.0000
  O   O25       1.0  0.849  0.532  0.4178  1.0000
  O   O26       1.0  0.651  0.03200000000000003  0.5822  1.0000
  O   O27       1.0  0.15100000000000002  0.468  0.5822  1.0000
  O   O28       1.0  0.349  0.9679999999999999  0.4178  1.0000
  O   O29       1.0  0.1485  0.8861  0.2567  1.0000
  O   O30       1.0  0.3515000000000001  0.3860999999999999  0.7433000000000001  1.0000
  O   O31       1.0  0.8515000000000001  0.1139  0.7433000000000001  1.0000
  O   O32       1.0  0.6485  0.6139  0.2567  1.0000
  O   O33       1.0  0.39470000000000005  0.7843  0.2469  1.0000
  O   O34       1.0  0.10529999999999994  0.2843  0.7531  1.0000
  O   O35       1.0  0.6053  0.21569999999999998  0.7531  1.0000
  O   O36       1.0  0.8947  0.7157  0.2469  1.0000
  O   O37       1.0  0.8518  0.4781  0.1683  1.0000
  O   O38       1.0  0.6482  0.9781  0.8317  1.0000
  O   O39       1.0  0.14820000000000003  0.5219  0.8317  1.0000
  O   O40       1.0  0.3517999999999999  0.021899999999999975  0.1683  1.0000
  O   O41       1.0  0.1391  0.11670000000000001  0.0375  1.0000
  O   O42       1.0  0.3609  0.6167  0.9625000000000001  1.0000
  O   O43       1.0  0.8609000000000001  0.8833000000000001  0.9625000000000001  1.0000
  O   O44       1.0  0.6391  0.3833  0.0375  1.0000
  O   O45       1.0  0.3822  0.22899999999999998  0.0342  1.0000
  O   O46       1.0  0.11780000000000002  0.729  0.9658  1.0000
  O   O47       1.0  0.6178  0.771  0.9658  1.0000
  O   O48       1.0  0.8822  0.271  0.0342  1.0000
  Li  Li1       1.0  0.003999999999999998  0.832  0.39  1.0000
  Li  Li2       1.0  0.496  0.33199999999999985  0.61  1.0000
  Li  Li3       1.0  0.996  0.16800000000000004  0.61  1.0000
  Li  Li4       1.0  0.504  0.668  0.39  1.0000
  Li  Li5       1.0  0.005  0.827  0.104  1.0000
  Li  Li6       1.0  0.495  0.32699999999999996  0.896  1.0000
  Li  Li7       1.0  0.995  0.17300000000000004  0.896  1.0000
  Li  Li8       1.0  0.505  0.673  0.104  1.0000
