data_image0
_chemical_formula_structural       Mn12N12
_chemical_formula_sum              "Mn12 N12"
_cell_length_a       4.8552
_cell_length_b       8.4088
_cell_length_c       4.5327
_cell_angle_alpha    90.0
_cell_angle_beta     90.0
_cell_angle_gamma    90.0

_space_group_name_H-M_alt    "P 1"
_space_group_IT_number       1

loop_
  _space_group_symop_operation_xyz
  'x, y, z'

loop_
  _atom_site_type_symbol
  _atom_site_label
  _atom_site_symmetry_multiplicity
  _atom_site_fract_x
  _atom_site_fract_y
  _atom_site_fract_z
  _atom_site_occupancy
  Mn  Mn1       1.0  0.8299999999999998  0.83  0.0  1.0000
  Mn  Mn2       1.0  0.8299999999999998  0.17000000000000004  0.0  1.0000
  Mn  Mn3       1.0  0.17000000000000012  0.17000000000000004  0.5  1.0000
  Mn  Mn4       1.0  0.17000000000000012  0.83  0.5  1.0000
  Mn  Mn5       1.0  0.32999999999999985  0.33000000000000007  0.0  1.0000
  Mn  Mn6       1.0  0.32999999999999985  0.67  0.0  1.0000
  Mn  Mn7       1.0  0.6700000000000002  0.67  0.5  1.0000
  Mn  Mn8       1.0  0.6700000000000002  0.33000000000000007  0.5  1.0000
  Mn  Mn9       1.0  0.333  0.0  0.0  1.0000
  Mn  Mn10      1.0  0.667  0.0  0.5  1.0000
  Mn  Mn11      1.0  0.8329999999999999  0.5  0.0  1.0000
  Mn  Mn12      1.0  0.16699999999999998  0.5  0.5  1.0000
  N   N1        1.0  0.0  0.0  0.25  0.4300
  N   N2        1.0  0.0  0.0  0.75  0.4300
  N   N3        1.0  0.5  0.5  0.25  0.4300
  N   N4        1.0  0.5  0.5  0.75  0.4300
  N   N5        1.0  0.0  0.6667  0.25  0.1200
  N   N6        1.0  0.0  0.33330000000000004  0.75  0.1200
  N   N7        1.0  0.5  0.16670000000000007  0.25  0.1200
  N   N8        1.0  0.5  0.8333  0.75  0.1200
  N   N9        1.0  0.0  0.3333  0.25  0.7200
  N   N10       1.0  0.0  0.6667000000000001  0.75  0.7200
  N   N11       1.0  0.5  0.8332999999999999  0.25  0.7200
  N   N12       1.0  0.5  0.16670000000000001  0.75  0.7200
