data_image0
_chemical_formula_structural       Mn3N3Li5
_chemical_formula_sum              "Mn3 N3 Li5"
_cell_length_a       6.359
_cell_length_b       6.358999999999999
_cell_length_c       3.817
_cell_angle_alpha    90.0
_cell_angle_beta     90.0
_cell_angle_gamma    119.99999999999999

_space_group_name_H-M_alt    "P 1"
_space_group_IT_number       1

loop_
  _space_group_symop_operation_xyz
  'x, y, z'

loop_
  _atom_site_type_symbol
  _atom_site_label
  _atom_site_symmetry_multiplicity
  _atom_site_fract_x
  _atom_site_fract_y
  _atom_site_fract_z
  _atom_site_occupancy
  Mn  Mn1       1.0  0.6388999999999998  0.0  0.0  0.5930
  Mn  Mn2       1.0  4.511608364249053e-18  0.6388999999999999  0.0  0.5930
  Mn  Mn3       1.0  0.36110000000000003  0.3611000000000001  0.0  0.5930
  N   N1        1.0  0.6459999999999998  0.0  0.5  1.0000
  N   N2        1.0  0.0  0.6459999999999999  0.5  1.0000
  N   N3        1.0  0.35400000000000004  0.3540000000000001  0.5  1.0000
  Li  Li1       1.0  0.27099999999999996  0.0  0.5  1.0000
  Li  Li2       1.0  7.689084468989888e-18  0.27099999999999996  0.5  1.0000
  Li  Li3       1.0  0.7289999999999999  0.729  0.5  1.0000
  Li  Li4       1.0  0.6666999999999997  0.3333  0.5  1.0000
  Li  Li5       1.0  0.3333  0.6666999999999998  0.5  1.0000
  Li  Li6       1.0  0.6388999999999998  0.0  0.0  0.4100
  Li  Li7       1.0  4.511608364249053e-18  0.6388999999999999  0.0  0.4100
  Li  Li8       1.0  0.36110000000000003  0.3611000000000001  0.0  0.4100
