data_image0
_chemical_formula_structural       Nd4Cu4O10
_chemical_formula_sum              "Nd4 Cu4 O10"
_cell_length_a       5.596
_cell_length_b       10.29
_cell_length_c       3.806
_cell_angle_alpha    90.0
_cell_angle_beta     90.0
_cell_angle_gamma    90.0

_space_group_name_H-M_alt    "P 1"
_space_group_IT_number       1

loop_
  _space_group_symop_operation_xyz
  'x, y, z'

loop_
  _atom_site_type_symbol
  _atom_site_label
  _atom_site_symmetry_multiplicity
  _atom_site_fract_x
  _atom_site_fract_y
  _atom_site_fract_z
  _atom_site_occupancy
  Nd  Nd1       1.0  0.3224  0.3564  0.5  1.0000
  Nd  Nd2       1.0  0.6776  0.6436  0.5  1.0000
  Nd  Nd3       1.0  0.8224  0.1436  0.5  1.0000
  Nd  Nd4       1.0  0.17759999999999998  0.8563999999999999  0.5  1.0000
  Cu  Cu1       1.0  0.2985  0.0981  0.0  1.0000
  Cu  Cu2       1.0  0.7015  0.9018999999999999  0.0  1.0000
  Cu  Cu3       1.0  0.7985  0.4019  0.0  1.0000
  Cu  Cu4       1.0  0.20149999999999998  0.5980999999999999  0.0  1.0000
  O   O1        1.0  0.281  0.09799999999999999  0.5  1.0000
  O   O2        1.0  0.719  0.902  0.5  1.0000
  O   O3        1.0  0.781  0.40199999999999997  0.5  1.0000
  O   O4        1.0  0.21899999999999997  0.598  0.5  1.0000
  O   O5        1.0  0.543  0.223  0.0  1.0000
  O   O6        1.0  0.45699999999999996  0.7769999999999999  0.0  1.0000
  O   O7        1.0  0.04300000000000015  0.277  0.0  1.0000
  O   O8        1.0  0.957  0.723  0.0  1.0000
  O   O9        1.0  0.0  0.0  0.0  1.0000
  O   O10       1.0  0.5  0.5  0.0  1.0000
