data_image0
_chemical_formula_structural       UMo10O16
_chemical_formula_sum              "U1 Mo10 O16"
_cell_length_a       9.9
_cell_length_b       7.1889
_cell_length_c       4.1074
_cell_angle_alpha    90.0
_cell_angle_beta     90.0
_cell_angle_gamma    90.0

_space_group_name_H-M_alt    "P 1"
_space_group_IT_number       1

loop_
  _space_group_symop_operation_xyz
  'x, y, z'

loop_
  _atom_site_type_symbol
  _atom_site_label
  _atom_site_symmetry_multiplicity
  _atom_site_fract_x
  _atom_site_fract_y
  _atom_site_fract_z
  _atom_site_occupancy
  U   U1        1.0  0.0  0.0  0.0  0.7500
  Mo  Mo1       1.0  0.0  0.5  0.9039000000000003  0.5000
  Mo  Mo2       1.0  0.0  0.5  0.09609999999999985  0.5000
  Mo  Mo3       1.0  0.3319  0.2498  0.9039000000000003  0.8030
  Mo  Mo4       1.0  0.6681  0.7502  0.9039000000000003  0.8030
  Mo  Mo5       1.0  0.3319  0.7502  0.09609999999999985  0.8030
  Mo  Mo6       1.0  0.6681  0.2498  0.09609999999999985  0.8030
  Mo  Mo7       1.0  0.3199  0.2498  0.0961  0.1970
  Mo  Mo8       1.0  0.6800999999999999  0.7502  0.0961  0.1970
  Mo  Mo9       1.0  0.3199  0.7502  0.9039000000000001  0.1970
  Mo  Mo10      1.0  0.6800999999999999  0.2498  0.9039000000000001  0.1970
  O   O1        1.0  0.0  0.0  0.5  1.0000
  O   O2        1.0  0.0  0.5  0.5  1.0000
  O   O3        1.0  0.128  0.308  0.004000000000000002  1.0000
  O   O4        1.0  0.872  0.692  0.004000000000000002  1.0000
  O   O5        1.0  0.128  0.692  0.9959999999999999  1.0000
  O   O6        1.0  0.872  0.308  0.9959999999999999  1.0000
  O   O7        1.0  0.254  0.0  0.0  1.0000
  O   O8        1.0  0.746  0.0  0.0  1.0000
  O   O9        1.0  0.355  0.5  0.0  1.0000
  O   O10       1.0  0.645  0.5  0.0  1.0000
  O   O11       1.0  0.318  0.24700000000000005  0.502  1.0000
  O   O12       1.0  0.6819999999999999  0.753  0.502  1.0000
  O   O13       1.0  0.318  0.753  0.49799999999999994  1.0000
  O   O14       1.0  0.6819999999999999  0.24700000000000005  0.49799999999999994  1.0000
  O   O15       1.0  0.5  0.187  0.0  1.0000
  O   O16       1.0  0.5  0.8130000000000001  0.0  1.0000
