data_image0
_chemical_formula_structural       Te16Cs8O48
_chemical_formula_sum              "Te16 Cs8 O48"
_cell_length_a       10.0684
_cell_length_b       10.0684
_cell_length_c       10.0684
_cell_angle_alpha    90.0
_cell_angle_beta     90.0
_cell_angle_gamma    90.0

_space_group_name_H-M_alt    "P 1"
_space_group_IT_number       1

loop_
  _space_group_symop_operation_xyz
  'x, y, z'

loop_
  _atom_site_type_symbol
  _atom_site_label
  _atom_site_symmetry_multiplicity
  _atom_site_fract_x
  _atom_site_fract_y
  _atom_site_fract_z
  _atom_site_occupancy
  Te  Te1       1.0  0.0  0.5  0.0  0.8120
  Te  Te2       1.0  0.75  0.75  0.5  0.8120
  Te  Te3       1.0  0.25  0.0  0.75  0.8120
  Te  Te4       1.0  0.5  0.25  0.25  0.8120
  Te  Te5       1.0  0.0  0.0  0.5  0.8120
  Te  Te6       1.0  0.5  0.75  0.75  0.8120
  Te  Te7       1.0  0.75  0.25  0.0  0.8120
  Te  Te8       1.0  0.25  0.5  0.25  0.8120
  Te  Te9       1.0  0.5  0.0  0.0  0.8120
  Te  Te10      1.0  0.75  0.5  0.75  0.8120
  Te  Te11      1.0  0.0  0.75  0.25  0.8120
  Te  Te12      1.0  0.25  0.25  0.5  0.8120
  Te  Te13      1.0  0.5  0.5  0.5  0.8120
  Te  Te14      1.0  0.75  0.0  0.25  0.8120
  Te  Te15      1.0  0.0  0.25  0.75  0.8120
  Te  Te16      1.0  0.25  0.75  0.0  0.8120
  Cs  Cs1       1.0  0.125  0.125  0.125  1.0000
  Cs  Cs2       1.0  0.625  0.125  0.625  1.0000
  Cs  Cs3       1.0  0.125  0.625  0.625  1.0000
  Cs  Cs4       1.0  0.625  0.625  0.125  1.0000
  Cs  Cs5       1.0  0.8750000000000001  0.375  0.375  1.0000
  Cs  Cs6       1.0  0.8750000000000001  0.8750000000000001  0.8750000000000001  1.0000
  Cs  Cs7       1.0  0.375  0.375  0.8750000000000001  1.0000
  Cs  Cs8       1.0  0.375  0.8750000000000001  0.375  1.0000
  O   O1        1.0  0.125  0.625  0.9298000000000001  1.0000
  O   O2        1.0  0.625  0.625  0.4298  1.0000
  O   O3        1.0  0.125  0.125  0.8202000000000002  1.0000
  O   O4        1.0  0.625  0.125  0.3202  1.0000
  O   O5        1.0  0.9298000000000001  0.125  0.625  1.0000
  O   O6        1.0  0.4298  0.625  0.625  1.0000
  O   O7        1.0  0.8202000000000002  0.125  0.125  1.0000
  O   O8        1.0  0.3202  0.625  0.125  1.0000
  O   O9        1.0  0.625  0.9298000000000001  0.125  1.0000
  O   O10       1.0  0.625  0.4298  0.625  1.0000
  O   O11       1.0  0.125  0.8202000000000002  0.125  1.0000
  O   O12       1.0  0.125  0.3202  0.625  1.0000
  O   O13       1.0  0.375  0.375  0.5702  1.0000
  O   O14       1.0  0.375  0.8750000000000001  0.0702  1.0000
  O   O15       1.0  0.8750000000000001  0.375  0.6798  1.0000
  O   O16       1.0  0.8750000000000001  0.8750000000000001  0.17980000000000002  1.0000
  O   O17       1.0  0.8750000000000001  0.17980000000000002  0.8750000000000001  1.0000
  O   O18       1.0  0.375  0.6798  0.8750000000000001  1.0000
  O   O19       1.0  0.8750000000000001  0.0702  0.375  1.0000
  O   O20       1.0  0.375  0.5702  0.375  1.0000
  O   O21       1.0  0.6798  0.8750000000000001  0.375  1.0000
  O   O22       1.0  0.17980000000000002  0.8750000000000001  0.8750000000000001  1.0000
  O   O23       1.0  0.5702  0.375  0.375  1.0000
  O   O24       1.0  0.0702  0.375  0.8750000000000001  1.0000
  O   O25       1.0  0.125  0.125  0.4298  1.0000
  O   O26       1.0  0.625  0.125  0.9298000000000001  1.0000
  O   O27       1.0  0.125  0.625  0.3202  1.0000
  O   O28       1.0  0.625  0.625  0.8202000000000002  1.0000
  O   O29       1.0  0.9298000000000001  0.625  0.125  1.0000
  O   O30       1.0  0.4298  0.125  0.125  1.0000
  O   O31       1.0  0.8202000000000002  0.625  0.625  1.0000
  O   O32       1.0  0.3202  0.125  0.625  1.0000
  O   O33       1.0  0.8750000000000001  0.6798  0.375  1.0000
  O   O34       1.0  0.375  0.17980000000000002  0.375  1.0000
  O   O35       1.0  0.8750000000000001  0.5702  0.8750000000000001  1.0000
  O   O36       1.0  0.375  0.0702  0.8750000000000001  1.0000
  O   O37       1.0  0.6798  0.375  0.8750000000000001  1.0000
  O   O38       1.0  0.17980000000000002  0.375  0.375  1.0000
  O   O39       1.0  0.5702  0.8750000000000001  0.8750000000000001  1.0000
  O   O40       1.0  0.0702  0.8750000000000001  0.375  1.0000
  O   O41       1.0  0.125  0.9298000000000001  0.625  1.0000
  O   O42       1.0  0.125  0.4298  0.125  1.0000
  O   O43       1.0  0.625  0.8202000000000002  0.625  1.0000
  O   O44       1.0  0.625  0.3202  0.125  1.0000
  O   O45       1.0  0.8750000000000001  0.375  0.0702  1.0000
  O   O46       1.0  0.8750000000000001  0.8750000000000001  0.5702  1.0000
  O   O47       1.0  0.375  0.375  0.17980000000000002  1.0000
  O   O48       1.0  0.375  0.8750000000000001  0.6798  1.0000
  Al  Al1       1.0  0.0  0.5  0.0  0.1880
  Al  Al2       1.0  0.75  0.75  0.5  0.1880
  Al  Al3       1.0  0.25  0.0  0.75  0.1880
  Al  Al4       1.0  0.5  0.25  0.25  0.1880
  Al  Al5       1.0  0.0  0.0  0.5  0.1880
  Al  Al6       1.0  0.5  0.75  0.75  0.1880
  Al  Al7       1.0  0.75  0.25  0.0  0.1880
  Al  Al8       1.0  0.25  0.5  0.25  0.1880
  Al  Al9       1.0  0.5  0.0  0.0  0.1880
  Al  Al10      1.0  0.75  0.5  0.75  0.1880
  Al  Al11      1.0  0.0  0.75  0.25  0.1880
  Al  Al12      1.0  0.25  0.25  0.5  0.1880
  Al  Al13      1.0  0.5  0.5  0.5  0.1880
  Al  Al14      1.0  0.75  0.0  0.25  0.1880
  Al  Al15      1.0  0.0  0.25  0.75  0.1880
  Al  Al16      1.0  0.25  0.75  0.0  0.1880
