data_image0
_chemical_formula_structural       Cu4O4
_chemical_formula_sum              "Cu4 O4"
_cell_length_a       4.6837
_cell_length_b       3.4226
_cell_length_c       5.1288
_cell_angle_alpha    90.0
_cell_angle_beta     99.54
_cell_angle_gamma    90.0

_space_group_name_H-M_alt    "P 1"
_space_group_IT_number       1

loop_
  _space_group_symop_operation_xyz
  'x, y, z'

loop_
  _atom_site_type_symbol
  _atom_site_label
  _atom_site_symmetry_multiplicity
  _atom_site_fract_x
  _atom_site_fract_y
  _atom_site_fract_z
  _atom_site_occupancy
  Cu  Cu1       1.0  0.25  0.75  0.5  1.0000
  Cu  Cu2       1.0  0.75  0.75  0.0  1.0000
  Cu  Cu3       1.0  0.75  0.25  0.5  1.0000
  Cu  Cu4       1.0  0.25  0.25  0.0  1.0000
  O   O1        1.0  0.0  0.5816  0.75  1.0000
  O   O2        1.0  0.0  0.4184  0.25  1.0000
  O   O3        1.0  0.5  0.08159999999999999  0.75  1.0000
  O   O4        1.0  0.5  0.9184  0.25  1.0000
