data_image0
_chemical_formula_structural       Ba4Ca2In6O12
_chemical_formula_sum              "Ba4 Ca2 In6 O12"
_cell_length_a       9.888
_cell_length_b       9.888
_cell_length_c       3.217
_cell_angle_alpha    90.0
_cell_angle_beta     90.0
_cell_angle_gamma    119.99999999999999

_space_group_name_H-M_alt    "P 1"
_space_group_IT_number       1

loop_
  _space_group_symop_operation_xyz
  'x, y, z'

loop_
  _atom_site_type_symbol
  _atom_site_label
  _atom_site_symmetry_multiplicity
  _atom_site_fract_x
  _atom_site_fract_y
  _atom_site_fract_z
  _atom_site_occupancy
  Ba  Ba1       1.0  0.0  0.0  0.16  0.2150
  Ba  Ba2       1.0  0.0  0.0  0.66  0.2150
  Ba  Ba3       1.0  0.0  0.0  0.84  0.2150
  Ba  Ba4       1.0  0.0  0.0  0.33999999999999997  0.2150
  Ca  Ca1       1.0  0.3333  0.6667  0.24999999999999994  1.0000
  Ca  Ca2       1.0  0.6667000000000001  0.33330000000000004  0.7499999999999999  1.0000
  In  In1       1.0  0.34720000000000006  0.9956000000000002  0.24999999999999994  1.0000
  In  In2       1.0  0.004399999999999997  0.3516  0.24999999999999994  1.0000
  In  In3       1.0  0.6484  0.6528  0.24999999999999994  1.0000
  In  In4       1.0  0.6528  0.0044  0.7499999999999999  1.0000
  In  In5       1.0  0.9956000000000002  0.6484  0.7499999999999999  1.0000
  In  In6       1.0  0.3516  0.3472  0.7499999999999999  1.0000
  O   O1        1.0  0.19350000000000006  0.3048  0.24999999999999994  1.0000
  O   O2        1.0  0.6952  0.8887  0.24999999999999994  1.0000
  O   O3        1.0  0.11129999999999997  0.8065  0.24999999999999994  1.0000
  O   O4        1.0  0.8065  0.6952  0.7499999999999999  1.0000
  O   O5        1.0  0.30480000000000007  0.11129999999999998  0.7499999999999999  1.0000
  O   O6        1.0  0.8887000000000002  0.19350000000000003  0.7499999999999999  1.0000
  O   O7        1.0  0.5316  0.3985  0.24999999999999994  1.0000
  O   O8        1.0  0.6015  0.13309999999999994  0.24999999999999994  1.0000
  O   O9        1.0  0.8669  0.4684  0.24999999999999994  1.0000
  O   O10       1.0  0.4684000000000001  0.6014999999999999  0.7499999999999999  1.0000
  O   O11       1.0  0.3985000000000001  0.8669  0.7499999999999999  1.0000
  O   O12       1.0  0.13309999999999994  0.5316  0.7499999999999999  1.0000
