data_image0
_chemical_formula_structural       Ni32S32
_chemical_formula_sum              "Ni32 S32"
_cell_length_a       10.04
_cell_length_b       10.04
_cell_length_c       10.04
_cell_angle_alpha    90.0
_cell_angle_beta     90.0
_cell_angle_gamma    90.0

_space_group_name_H-M_alt    "P 1"
_space_group_IT_number       1

loop_
  _space_group_symop_operation_xyz
  'x, y, z'

loop_
  _atom_site_type_symbol
  _atom_site_label
  _atom_site_symmetry_multiplicity
  _atom_site_fract_x
  _atom_site_fract_y
  _atom_site_fract_z
  _atom_site_occupancy
  Ni  Ni1       1.0  0.25  0.25  0.25  0.5000
  Ni  Ni2       1.0  0.25  0.75  0.75  0.5000
  Ni  Ni3       1.0  0.75  0.25  0.75  0.5000
  Ni  Ni4       1.0  0.75  0.75  0.25  0.5000
  Ni  Ni5       1.0  0.75  0.75  0.75  0.5000
  Ni  Ni6       1.0  0.75  0.25  0.25  0.5000
  Ni  Ni7       1.0  0.25  0.75  0.25  0.5000
  Ni  Ni8       1.0  0.25  0.25  0.75  0.5000
  Ni  Ni9       1.0  0.25  0.0  0.0  0.5000
  Ni  Ni10      1.0  0.0  0.0  0.25  0.5000
  Ni  Ni11      1.0  0.0  0.25  0.0  0.5000
  Ni  Ni12      1.0  0.0  0.0  0.75  0.5000
  Ni  Ni13      1.0  0.0  0.75  0.0  0.5000
  Ni  Ni14      1.0  0.75  0.0  0.0  0.5000
  Ni  Ni15      1.0  0.25  0.5  0.5  0.5000
  Ni  Ni16      1.0  0.75  0.0  0.5  0.5000
  Ni  Ni17      1.0  0.75  0.5  0.0  0.5000
  Ni  Ni18      1.0  0.0  0.5  0.75  0.5000
  Ni  Ni19      1.0  0.5  0.0  0.75  0.5000
  Ni  Ni20      1.0  0.5  0.5  0.25  0.5000
  Ni  Ni21      1.0  0.0  0.75  0.5  0.5000
  Ni  Ni22      1.0  0.5  0.25  0.5  0.5000
  Ni  Ni23      1.0  0.5  0.75  0.0  0.5000
  Ni  Ni24      1.0  0.0  0.5  0.25  0.5000
  Ni  Ni25      1.0  0.5  0.0  0.25  0.5000
  Ni  Ni26      1.0  0.5  0.5  0.75  0.5000
  Ni  Ni27      1.0  0.0  0.25  0.5  0.5000
  Ni  Ni28      1.0  0.5  0.75  0.5  0.5000
  Ni  Ni29      1.0  0.5  0.25  0.0  0.5000
  Ni  Ni30      1.0  0.75  0.5  0.5  0.5000
  Ni  Ni31      1.0  0.25  0.0  0.5  0.5000
  Ni  Ni32      1.0  0.25  0.5  0.0  0.5000
  S   S1        1.0  0.125  0.125  0.125  1.0000
  S   S2        1.0  0.125  0.8750000000000001  0.8750000000000001  1.0000
  S   S3        1.0  0.8750000000000001  0.125  0.8750000000000001  1.0000
  S   S4        1.0  0.8750000000000001  0.8750000000000001  0.125  1.0000
  S   S5        1.0  0.8750000000000001  0.8750000000000001  0.8750000000000001  1.0000
  S   S6        1.0  0.8750000000000001  0.125  0.125  1.0000
  S   S7        1.0  0.125  0.8750000000000001  0.125  1.0000
  S   S8        1.0  0.125  0.125  0.8750000000000001  1.0000
  S   S9        1.0  0.125  0.625  0.625  1.0000
  S   S10       1.0  0.625  0.125  0.625  1.0000
  S   S11       1.0  0.625  0.625  0.125  1.0000
  S   S12       1.0  0.125  0.375  0.375  1.0000
  S   S13       1.0  0.625  0.8750000000000001  0.375  1.0000
  S   S14       1.0  0.625  0.375  0.8750000000000001  1.0000
  S   S15       1.0  0.8750000000000001  0.625  0.375  1.0000
  S   S16       1.0  0.375  0.125  0.375  1.0000
  S   S17       1.0  0.375  0.625  0.8750000000000001  1.0000
  S   S18       1.0  0.8750000000000001  0.375  0.625  1.0000
  S   S19       1.0  0.375  0.8750000000000001  0.625  1.0000
  S   S20       1.0  0.375  0.375  0.125  1.0000
  S   S21       1.0  0.8750000000000001  0.375  0.375  1.0000
  S   S22       1.0  0.375  0.8750000000000001  0.375  1.0000
  S   S23       1.0  0.375  0.375  0.8750000000000001  1.0000
  S   S24       1.0  0.8750000000000001  0.625  0.625  1.0000
  S   S25       1.0  0.375  0.125  0.625  1.0000
  S   S26       1.0  0.375  0.625  0.125  1.0000
  S   S27       1.0  0.125  0.375  0.625  1.0000
  S   S28       1.0  0.625  0.8750000000000001  0.625  1.0000
  S   S29       1.0  0.625  0.375  0.125  1.0000
  S   S30       1.0  0.125  0.625  0.375  1.0000
  S   S31       1.0  0.625  0.125  0.375  1.0000
  S   S32       1.0  0.625  0.625  0.8750000000000001  1.0000
  Fe  Fe1       1.0  0.25  0.25  0.25  0.5000
  Fe  Fe2       1.0  0.25  0.75  0.75  0.5000
  Fe  Fe3       1.0  0.75  0.25  0.75  0.5000
  Fe  Fe4       1.0  0.75  0.75  0.25  0.5000
  Fe  Fe5       1.0  0.75  0.75  0.75  0.5000
  Fe  Fe6       1.0  0.75  0.25  0.25  0.5000
  Fe  Fe7       1.0  0.25  0.75  0.25  0.5000
  Fe  Fe8       1.0  0.25  0.25  0.75  0.5000
  Fe  Fe9       1.0  0.25  0.0  0.0  0.5000
  Fe  Fe10      1.0  0.0  0.0  0.25  0.5000
  Fe  Fe11      1.0  0.0  0.25  0.0  0.5000
  Fe  Fe12      1.0  0.0  0.0  0.75  0.5000
  Fe  Fe13      1.0  0.0  0.75  0.0  0.5000
  Fe  Fe14      1.0  0.75  0.0  0.0  0.5000
  Fe  Fe15      1.0  0.25  0.5  0.5  0.5000
  Fe  Fe16      1.0  0.75  0.0  0.5  0.5000
  Fe  Fe17      1.0  0.75  0.5  0.0  0.5000
  Fe  Fe18      1.0  0.0  0.5  0.75  0.5000
  Fe  Fe19      1.0  0.5  0.0  0.75  0.5000
  Fe  Fe20      1.0  0.5  0.5  0.25  0.5000
  Fe  Fe21      1.0  0.0  0.75  0.5  0.5000
  Fe  Fe22      1.0  0.5  0.25  0.5  0.5000
  Fe  Fe23      1.0  0.5  0.75  0.0  0.5000
  Fe  Fe24      1.0  0.0  0.5  0.25  0.5000
  Fe  Fe25      1.0  0.5  0.0  0.25  0.5000
  Fe  Fe26      1.0  0.5  0.5  0.75  0.5000
  Fe  Fe27      1.0  0.0  0.25  0.5  0.5000
  Fe  Fe28      1.0  0.5  0.75  0.5  0.5000
  Fe  Fe29      1.0  0.5  0.25  0.0  0.5000
  Fe  Fe30      1.0  0.75  0.5  0.5  0.5000
  Fe  Fe31      1.0  0.25  0.0  0.5  0.5000
  Fe  Fe32      1.0  0.25  0.5  0.0  0.5000
