data_image0
_chemical_formula_structural       Ag6P3O12H3
_chemical_formula_sum              "Ag6 P3 O12 H3"
_cell_length_a       6.19
_cell_length_b       6.1899999999999995
_cell_length_c       9.015
_cell_angle_alpha    90.0
_cell_angle_beta     90.0
_cell_angle_gamma    119.99999999999999

_space_group_name_H-M_alt    "P 1"
_space_group_IT_number       1

loop_
  _space_group_symop_operation_xyz
  'x, y, z'

loop_
  _atom_site_type_symbol
  _atom_site_label
  _atom_site_symmetry_multiplicity
  _atom_site_fract_x
  _atom_site_fract_y
  _atom_site_fract_z
  _atom_site_occupancy
  Ag  Ag1       1.0  0.9182  0.08179999999999998  0.3333  1.0000
  Ag  Ag2       1.0  0.9182  0.8364  0.6666333333333333  1.0000
  Ag  Ag3       1.0  0.16360000000000002  0.08180000000000001  0.9999666666666668  1.0000
  Ag  Ag4       1.0  0.2051  0.7948999999999998  0.3333  1.0000
  Ag  Ag5       1.0  0.20510000000000003  0.4102  0.6666333333333333  1.0000
  Ag  Ag6       1.0  0.5898  0.7948999999999998  0.9999666666666668  1.0000
  P   P1        1.0  0.5087  0.49129999999999996  0.3333  1.0000
  P   P2        1.0  0.5087  0.017400000000000082  0.6666333333333333  1.0000
  P   P3        1.0  0.9826  0.49129999999999996  0.9999666666666668  1.0000
  O   O1        1.0  0.2667  0.41229999999999994  0.4147  1.0000
  O   O2        1.0  0.5877000000000001  0.8544  0.7480333333333334  1.0000
  O   O3        1.0  0.14559999999999995  0.7333000000000001  0.08136666666666659  1.0000
  O   O4        1.0  0.2667  0.8544  0.5852999999999999  1.0000
  O   O5        1.0  0.5877000000000001  0.7333000000000001  0.25196666666666667  1.0000
  O   O6        1.0  0.14559999999999995  0.41229999999999994  0.9186333333333333  1.0000
  O   O7        1.0  0.4609000000000001  0.27499999999999997  0.22470000000000004  1.0000
  O   O8        1.0  0.7250000000000002  0.18590000000000007  0.5580333333333335  1.0000
  O   O9        1.0  0.8140999999999999  0.5390999999999998  0.8913666666666666  1.0000
  O   O10       1.0  0.4609000000000001  0.18590000000000007  0.7753  1.0000
  O   O11       1.0  0.7250000000000002  0.5390999999999998  0.4419666666666666  1.0000
  O   O12       1.0  0.8140999999999999  0.27499999999999997  0.10863333333333328  1.0000
  H   H1        1.0  0.62  0.24  0.1667  1.0000
  H   H2        1.0  0.7600000000000001  0.38  0.5000333333333333  1.0000
  H   H3        1.0  0.62  0.38  0.8333666666666667  1.0000
