data_image0
_chemical_formula_structural       Mg3N3B
_chemical_formula_sum              "Mg3 N3 B1"
_cell_length_a       3.0933
_cell_length_b       3.1336
_cell_length_c       7.7005
_cell_angle_alpha    90.0
_cell_angle_beta     90.0
_cell_angle_gamma    90.0

_space_group_name_H-M_alt    "P 1"
_space_group_IT_number       1

loop_
  _space_group_symop_operation_xyz
  'x, y, z'

loop_
  _atom_site_type_symbol
  _atom_site_label
  _atom_site_symmetry_multiplicity
  _atom_site_fract_x
  _atom_site_fract_y
  _atom_site_fract_z
  _atom_site_occupancy
  Mg  Mg1       1.0  0.0  0.0  0.0  1.0000
  Mg  Mg2       1.0  0.4999999999999999  0.5  0.2670000000000001  1.0000
  Mg  Mg3       1.0  0.49999999999999994  0.5  0.7329999999999999  1.0000
  N   N1        1.0  0.4999999999999999  0.5  0.0  1.0000
  N   N2        1.0  0.0  0.0  0.3263  1.0000
  N   N3        1.0  0.0  0.0  0.6737  1.0000
  B   B1        1.0  0.0  0.0  0.5  1.0000
