data_image0
_chemical_formula_structural       Ag6P2O8
_chemical_formula_sum              "Ag6 P2 O8"
_cell_length_a       6.026
_cell_length_b       6.026
_cell_length_c       6.026
_cell_angle_alpha    90.0
_cell_angle_beta     90.0
_cell_angle_gamma    90.0

_space_group_name_H-M_alt    "P 1"
_space_group_IT_number       1

loop_
  _space_group_symop_operation_xyz
  'x, y, z'

loop_
  _atom_site_type_symbol
  _atom_site_label
  _atom_site_symmetry_multiplicity
  _atom_site_fract_x
  _atom_site_fract_y
  _atom_site_fract_z
  _atom_site_occupancy
  Ag  Ag1       1.0  0.24999999999999994  0.0  0.4999999999999999  1.0000
  Ag  Ag2       1.0  0.0  0.4999999999999999  0.24999999999999994  1.0000
  Ag  Ag3       1.0  0.4999999999999999  0.24999999999999994  0.0  1.0000
  Ag  Ag4       1.0  0.75  0.0  0.49999999999999994  1.0000
  Ag  Ag5       1.0  0.0  0.4999999999999999  0.75  1.0000
  Ag  Ag6       1.0  0.4999999999999999  0.75  0.0  1.0000
  P   P1        1.0  0.0  0.0  0.0  1.0000
  P   P2        1.0  0.49999999999999994  0.49999999999999994  0.49999999999999994  1.0000
  O   O1        1.0  0.1486  0.1486  0.1486  1.0000
  O   O2        1.0  0.8513999999999999  0.1486  0.8513999999999999  1.0000
  O   O3        1.0  0.1486  0.8513999999999999  0.8513999999999999  1.0000
  O   O4        1.0  0.8513999999999999  0.8513999999999999  0.1486  1.0000
  O   O5        1.0  0.6486  0.6486  0.6486  1.0000
  O   O6        1.0  0.35139999999999993  0.35139999999999993  0.6486  1.0000
  O   O7        1.0  0.6486  0.35139999999999993  0.35139999999999993  1.0000
  O   O8        1.0  0.35139999999999993  0.6486  0.35139999999999993  1.0000
