data_image0
_chemical_formula_structural       Mo24Sn4Cl56
_chemical_formula_sum              "Mo24 Sn4 Cl56"
_cell_length_a       12.952
_cell_length_b       12.952
_cell_length_c       12.952
_cell_angle_alpha    90.0
_cell_angle_beta     90.0
_cell_angle_gamma    90.0

_space_group_name_H-M_alt    "P 1"
_space_group_IT_number       1

loop_
  _space_group_symop_operation_xyz
  'x, y, z'

loop_
  _atom_site_type_symbol
  _atom_site_label
  _atom_site_symmetry_multiplicity
  _atom_site_fract_x
  _atom_site_fract_y
  _atom_site_fract_z
  _atom_site_occupancy
  Mo  Mo1       1.0  0.864932  0.028295000000000004  0.9636840000000001  1.0000
  Mo  Mo2       1.0  0.635068  0.47170500000000004  0.9636840000000001  1.0000
  Mo  Mo3       1.0  0.864932  0.47170500000000004  0.5363159999999999  1.0000
  Mo  Mo4       1.0  0.9636840000000001  0.864932  0.028295000000000004  1.0000
  Mo  Mo5       1.0  0.635068  0.028295000000000004  0.5363159999999999  1.0000
  Mo  Mo6       1.0  0.5363159999999999  0.635068  0.028295000000000004  1.0000
  Mo  Mo7       1.0  0.9636840000000001  0.635068  0.47170500000000004  1.0000
  Mo  Mo8       1.0  0.5363159999999999  0.864932  0.47170500000000004  1.0000
  Mo  Mo9       1.0  0.028295000000000004  0.9636840000000001  0.864932  1.0000
  Mo  Mo10      1.0  0.47170500000000004  0.5363159999999999  0.864932  1.0000
  Mo  Mo11      1.0  0.028295000000000004  0.5363159999999999  0.635068  1.0000
  Mo  Mo12      1.0  0.47170500000000004  0.9636840000000001  0.635068  1.0000
  Mo  Mo13      1.0  0.13506799999999997  0.9717050000000002  0.036315999999999904  1.0000
  Mo  Mo14      1.0  0.3649320000000001  0.5282950000000001  0.036315999999999904  1.0000
  Mo  Mo15      1.0  0.13506799999999997  0.5282950000000001  0.46368400000000026  1.0000
  Mo  Mo16      1.0  0.036315999999999904  0.13506799999999997  0.9717050000000002  1.0000
  Mo  Mo17      1.0  0.3649320000000001  0.9717050000000002  0.46368400000000026  1.0000
  Mo  Mo18      1.0  0.46368400000000026  0.3649320000000001  0.9717050000000002  1.0000
  Mo  Mo19      1.0  0.036315999999999904  0.3649320000000001  0.5282950000000001  1.0000
  Mo  Mo20      1.0  0.46368400000000026  0.13506799999999997  0.5282950000000001  1.0000
  Mo  Mo21      1.0  0.9717050000000002  0.036315999999999904  0.13506799999999997  1.0000
  Mo  Mo22      1.0  0.5282950000000001  0.46368400000000026  0.13506799999999997  1.0000
  Mo  Mo23      1.0  0.9717050000000002  0.46368400000000026  0.3649320000000001  1.0000
  Mo  Mo24      1.0  0.5282950000000001  0.036315999999999904  0.3649320000000001  1.0000
  Sn  Sn1       1.0  0.5  0.5  0.5  1.0000
  Sn  Sn2       1.0  0.0  0.0  0.5  1.0000
  Sn  Sn3       1.0  0.5  0.0  0.0  1.0000
  Sn  Sn4       1.0  0.0  0.5  0.0  1.0000
  Cl  Cl1       1.0  0.1363  0.1363  0.1363  1.0000
  Cl  Cl2       1.0  0.3637  0.3637  0.1363  1.0000
  Cl  Cl3       1.0  0.1363  0.3637  0.3637  1.0000
  Cl  Cl4       1.0  0.3637  0.1363  0.3637  1.0000
  Cl  Cl5       1.0  0.8637  0.8637  0.8637  1.0000
  Cl  Cl6       1.0  0.6363  0.6363  0.8637  1.0000
  Cl  Cl7       1.0  0.8637  0.6363  0.6363  1.0000
  Cl  Cl8       1.0  0.6363  0.8637  0.6363  1.0000
  Cl  Cl9       1.0  0.3776  0.6883  0.9337000000000002  1.0000
  Cl  Cl10      1.0  0.12240000000000002  0.8117  0.9337000000000002  1.0000
  Cl  Cl11      1.0  0.3776  0.8117  0.5662999999999999  1.0000
  Cl  Cl12      1.0  0.9337000000000002  0.3776  0.6883  1.0000
  Cl  Cl13      1.0  0.12240000000000002  0.6883  0.5662999999999999  1.0000
  Cl  Cl14      1.0  0.5662999999999999  0.12240000000000002  0.6883  1.0000
  Cl  Cl15      1.0  0.9337000000000002  0.12240000000000002  0.8117  1.0000
  Cl  Cl16      1.0  0.5662999999999999  0.3776  0.8117  1.0000
  Cl  Cl17      1.0  0.6883  0.9337000000000002  0.3776  1.0000
  Cl  Cl18      1.0  0.8117  0.5662999999999999  0.3776  1.0000
  Cl  Cl19      1.0  0.6883  0.5662999999999999  0.12240000000000002  1.0000
  Cl  Cl20      1.0  0.8117  0.9337000000000002  0.12240000000000002  1.0000
  Cl  Cl21      1.0  0.6224000000000002  0.31170000000000003  0.06629999999999991  1.0000
  Cl  Cl22      1.0  0.8776  0.1882999999999999  0.06629999999999991  1.0000
  Cl  Cl23      1.0  0.6224000000000002  0.1882999999999999  0.43370000000000003  1.0000
  Cl  Cl24      1.0  0.06629999999999991  0.6224000000000002  0.31170000000000003  1.0000
  Cl  Cl25      1.0  0.8776  0.31170000000000003  0.43370000000000003  1.0000
  Cl  Cl26      1.0  0.43370000000000003  0.8776  0.31170000000000003  1.0000
  Cl  Cl27      1.0  0.06629999999999991  0.8776  0.1882999999999999  1.0000
  Cl  Cl28      1.0  0.43370000000000003  0.6224000000000002  0.1882999999999999  1.0000
  Cl  Cl29      1.0  0.31170000000000003  0.06629999999999991  0.6224000000000002  1.0000
  Cl  Cl30      1.0  0.1882999999999999  0.43370000000000003  0.6224000000000002  1.0000
  Cl  Cl31      1.0  0.31170000000000003  0.43370000000000003  0.8776  1.0000
  Cl  Cl32      1.0  0.1882999999999999  0.06629999999999991  0.8776  1.0000
  Cl  Cl33      1.0  0.5891  0.8133  0.0698  1.0000
  Cl  Cl34      1.0  0.9109000000000002  0.6867  0.0698  1.0000
  Cl  Cl35      1.0  0.5891  0.6867  0.4302000000000001  1.0000
  Cl  Cl36      1.0  0.0698  0.5891  0.8133  1.0000
  Cl  Cl37      1.0  0.9109000000000002  0.8133  0.4302000000000001  1.0000
  Cl  Cl38      1.0  0.4302000000000001  0.9109000000000002  0.8133  1.0000
  Cl  Cl39      1.0  0.0698  0.9109000000000002  0.6867  1.0000
  Cl  Cl40      1.0  0.4302000000000001  0.5891  0.6867  1.0000
  Cl  Cl41      1.0  0.8133  0.0698  0.5891  1.0000
  Cl  Cl42      1.0  0.6867  0.4302000000000001  0.5891  1.0000
  Cl  Cl43      1.0  0.8133  0.4302000000000001  0.9109000000000002  1.0000
  Cl  Cl44      1.0  0.6867  0.0698  0.9109000000000002  1.0000
  Cl  Cl45      1.0  0.4109000000000001  0.18669999999999998  0.9302  1.0000
  Cl  Cl46      1.0  0.08909999999999997  0.31329999999999997  0.9302  1.0000
  Cl  Cl47      1.0  0.4109000000000001  0.31329999999999997  0.5698  1.0000
  Cl  Cl48      1.0  0.9302  0.4109000000000001  0.18669999999999998  1.0000
  Cl  Cl49      1.0  0.08909999999999997  0.18669999999999998  0.5698  1.0000
  Cl  Cl50      1.0  0.5698  0.08909999999999997  0.18669999999999998  1.0000
  Cl  Cl51      1.0  0.9302  0.08909999999999997  0.31329999999999997  1.0000
  Cl  Cl52      1.0  0.5698  0.4109000000000001  0.31329999999999997  1.0000
  Cl  Cl53      1.0  0.18669999999999998  0.9302  0.4109000000000001  1.0000
  Cl  Cl54      1.0  0.31329999999999997  0.5698  0.4109000000000001  1.0000
  Cl  Cl55      1.0  0.18669999999999998  0.5698  0.08909999999999997  1.0000
  Cl  Cl56      1.0  0.31329999999999997  0.9302  0.08909999999999997  1.0000
