data_image0
_chemical_formula_structural       RbHgN3O6
_chemical_formula_sum              "Rb1 Hg1 N3 O6"
_cell_length_a       5.45
_cell_length_b       5.45
_cell_length_c       5.45
_cell_angle_alpha    90.0
_cell_angle_beta     90.0
_cell_angle_gamma    90.0

_space_group_name_H-M_alt    "P 1"
_space_group_IT_number       1

loop_
  _space_group_symop_operation_xyz
  'x, y, z'

loop_
  _atom_site_type_symbol
  _atom_site_label
  _atom_site_symmetry_multiplicity
  _atom_site_fract_x
  _atom_site_fract_y
  _atom_site_fract_z
  _atom_site_occupancy
  Rb  Rb1       1.0  0.0  0.0  0.0  1.0000
  Hg  Hg1       1.0  0.4999999999999999  0.4999999999999999  0.4999999999999999  1.0000
  N   N1        1.0  0.0  0.4999999999999999  0.4999999999999999  1.0000
  N   N2        1.0  0.4999999999999999  0.4999999999999999  0.0  1.0000
  N   N3        1.0  0.4999999999999999  0.0  0.4999999999999999  1.0000
  O   O1        1.0  0.0  0.24  0.4999999999999999  1.0000
  O   O2        1.0  0.0  0.76  0.49999999999999994  1.0000
  O   O3        1.0  0.24  0.4999999999999999  0.0  1.0000
  O   O4        1.0  0.76  0.49999999999999994  0.0  1.0000
  O   O5        1.0  0.4999999999999999  0.0  0.24  1.0000
  O   O6        1.0  0.49999999999999994  0.0  0.76  1.0000
