data_image0
_chemical_formula_structural       S8N12O32H56
_chemical_formula_sum              "S8 N12 O32 H56"
_cell_length_a       15.435
_cell_length_b       5.865
_cell_length_c       10.1696
_cell_angle_alpha    90.0
_cell_angle_beta     101.829
_cell_angle_gamma    90.0

_space_group_name_H-M_alt    "P 1"
_space_group_IT_number       1

loop_
  _space_group_symop_operation_xyz
  'x, y, z'

loop_
  _atom_site_type_symbol
  _atom_site_label
  _atom_site_symmetry_multiplicity
  _atom_site_fract_x
  _atom_site_fract_y
  _atom_site_fract_z
  _atom_site_occupancy
  S   S1        1.0  0.11418000000000003  0.21828  0.46135  1.0000
  S   S2        1.0  0.88582  0.21828  0.03865000000000002  1.0000
  S   S3        1.0  0.88582  0.78172  0.5386500000000001  1.0000
  S   S4        1.0  0.11418000000000005  0.78172  0.9613499999999999  1.0000
  S   S5        1.0  0.6141800000000002  0.71828  0.46135  1.0000
  S   S6        1.0  0.38582  0.71828  0.03865000000000002  1.0000
  S   S7        1.0  0.38582000000000005  0.28171999999999997  0.5386500000000001  1.0000
  S   S8        1.0  0.6141800000000002  0.28171999999999997  0.9613499999999999  1.0000
  N   N1        1.0  0.5  0.23039  0.25  1.0000
  N   N2        1.0  0.5  0.76961  0.75  1.0000
  N   N3        1.0  0.0  0.73039  0.25  1.0000
  N   N4        1.0  0.0  0.26961  0.75  1.0000
  N   N5        1.0  0.19893000000000005  0.27573  0.15266  1.0000
  N   N6        1.0  0.80107  0.27573  0.34734  1.0000
  N   N7        1.0  0.80107  0.72427  0.84734  1.0000
  N   N8        1.0  0.19893000000000005  0.72427  0.65266  1.0000
  N   N9        1.0  0.69893  0.7757300000000001  0.15266  1.0000
  N   N10       1.0  0.30107  0.7757300000000001  0.34734  1.0000
  N   N11       1.0  0.30107  0.22427000000000002  0.84734  1.0000
  N   N12       1.0  0.69893  0.22427000000000002  0.65266  1.0000
  O   O1        1.0  0.014150000000000001  0.18463  0.44256  1.0000
  O   O2        1.0  0.9858500000000001  0.18463  0.05743999999999999  1.0000
  O   O3        1.0  0.9858500000000002  0.81537  0.5574399999999999  1.0000
  O   O4        1.0  0.014150000000000001  0.81537  0.9425600000000001  1.0000
  O   O5        1.0  0.51415  0.68463  0.44256  1.0000
  O   O6        1.0  0.48585000000000006  0.68463  0.05743999999999999  1.0000
  O   O7        1.0  0.48585000000000006  0.31537000000000004  0.5574399999999999  1.0000
  O   O8        1.0  0.51415  0.31537000000000004  0.9425600000000001  1.0000
  O   O9        1.0  0.15024000000000007  0.22318000000000005  0.60589  1.0000
  O   O10       1.0  0.8497600000000001  0.22318000000000005  0.89411  1.0000
  O   O11       1.0  0.8497600000000001  0.77682  0.39410999999999996  1.0000
  O   O12       1.0  0.15024000000000007  0.77682  0.10589000000000004  1.0000
  O   O13       1.0  0.65024  0.7231800000000002  0.60589  1.0000
  O   O14       1.0  0.34975999999999996  0.7231800000000002  0.89411  1.0000
  O   O15       1.0  0.34975999999999996  0.27681999999999995  0.39410999999999996  1.0000
  O   O16       1.0  0.65024  0.27681999999999995  0.10589000000000004  1.0000
  O   O17       1.0  0.12909  0.43451  0.39838  1.0000
  O   O18       1.0  0.8709100000000001  0.43451  0.10161999999999997  1.0000
  O   O19       1.0  0.8709100000000001  0.56549  0.60162  1.0000
  O   O20       1.0  0.12909  0.56549  0.89838  1.0000
  O   O21       1.0  0.6290900000000001  0.9345100000000001  0.39838  1.0000
  O   O22       1.0  0.37091  0.9345100000000001  0.10161999999999997  1.0000
  O   O23       1.0  0.37091  0.06548999999999999  0.60162  1.0000
  O   O24       1.0  0.6290900000000001  0.06548999999999999  0.89838  1.0000
  O   O25       1.0  0.14906000000000005  0.02625  0.39784  1.0000
  O   O26       1.0  0.8509400000000001  0.02625  0.10215999999999997  1.0000
  O   O27       1.0  0.8509400000000001  0.97375  0.60216  1.0000
  O   O28       1.0  0.14906000000000005  0.97375  0.89784  1.0000
  O   O29       1.0  0.64906  0.52625  0.39784  1.0000
  O   O30       1.0  0.35094  0.52625  0.10215999999999997  1.0000
  O   O31       1.0  0.35094  0.47375000000000006  0.60216  1.0000
  O   O32       1.0  0.6490600000000001  0.47375000000000006  0.89784  1.0000
  H   H1        1.0  0.9990000000000001  0.047  0.47900000000000004  0.5000
  H   H2        1.0  0.0009999999999999913  0.047  0.020999999999999963  0.5000
  H   H3        1.0  0.0009999999999999913  0.953  0.5209999999999999  0.5000
  H   H4        1.0  0.9990000000000001  0.953  0.9790000000000001  0.5000
  H   H5        1.0  0.4990000000000001  0.547  0.47900000000000004  0.5000
  H   H6        1.0  0.501  0.547  0.020999999999999963  0.5000
  H   H7        1.0  0.501  0.453  0.5209999999999999  0.5000
  H   H8        1.0  0.49900000000000005  0.453  0.9790000000000001  0.5000
  H   H9        1.0  0.4760000000000001  0.15  0.19099999999999998  1.0000
  H   H10       1.0  0.5240000000000001  0.15  0.30900000000000005  1.0000
  H   H11       1.0  0.5240000000000001  0.85  0.809  1.0000
  H   H12       1.0  0.4760000000000001  0.85  0.691  1.0000
  H   H13       1.0  0.9760000000000001  0.65  0.19099999999999998  1.0000
  H   H14       1.0  0.023999999999999966  0.65  0.30900000000000005  1.0000
  H   H15       1.0  0.02399999999999998  0.35000000000000003  0.809  1.0000
  H   H16       1.0  0.9760000000000001  0.35000000000000003  0.691  1.0000
  H   H17       1.0  0.461  0.304  0.276  1.0000
  H   H18       1.0  0.5389999999999999  0.304  0.22399999999999998  1.0000
  H   H19       1.0  0.5389999999999999  0.6960000000000001  0.724  1.0000
  H   H20       1.0  0.461  0.6960000000000001  0.7759999999999999  1.0000
  H   H21       1.0  0.9610000000000002  0.804  0.276  1.0000
  H   H22       1.0  0.038999999999999986  0.804  0.22399999999999998  1.0000
  H   H23       1.0  0.038999999999999986  0.196  0.724  1.0000
  H   H24       1.0  0.9610000000000002  0.196  0.7759999999999999  1.0000
  H   H25       1.0  0.186  0.284  0.228  1.0000
  H   H26       1.0  0.8140000000000002  0.284  0.272  1.0000
  H   H27       1.0  0.8140000000000002  0.7160000000000001  0.7719999999999999  1.0000
  H   H28       1.0  0.186  0.7160000000000001  0.728  1.0000
  H   H29       1.0  0.686  0.784  0.228  1.0000
  H   H30       1.0  0.314  0.784  0.272  1.0000
  H   H31       1.0  0.314  0.21600000000000003  0.7719999999999999  1.0000
  H   H32       1.0  0.686  0.21600000000000003  0.728  1.0000
  H   H33       1.0  0.193  0.15300000000000002  0.113  1.0000
  H   H34       1.0  0.807  0.15300000000000002  0.38699999999999996  1.0000
  H   H35       1.0  0.807  0.847  0.887  1.0000
  H   H36       1.0  0.193  0.847  0.613  1.0000
  H   H37       1.0  0.6930000000000002  0.653  0.113  1.0000
  H   H38       1.0  0.30700000000000005  0.653  0.38699999999999996  1.0000
  H   H39       1.0  0.30700000000000005  0.34700000000000003  0.887  1.0000
  H   H40       1.0  0.6930000000000002  0.34700000000000003  0.613  1.0000
  H   H41       1.0  0.257  0.31000000000000005  0.164  1.0000
  H   H42       1.0  0.7430000000000001  0.31000000000000005  0.33599999999999997  1.0000
  H   H43       1.0  0.7430000000000001  0.6900000000000001  0.836  1.0000
  H   H44       1.0  0.257  0.6900000000000001  0.664  1.0000
  H   H45       1.0  0.7570000000000001  0.81  0.164  1.0000
  H   H46       1.0  0.24300000000000002  0.81  0.33599999999999997  1.0000
  H   H47       1.0  0.24300000000000002  0.18999999999999995  0.836  1.0000
  H   H48       1.0  0.7570000000000001  0.18999999999999995  0.664  1.0000
  H   H49       1.0  0.17499999999999996  0.389  0.112  1.0000
  H   H50       1.0  0.8250000000000001  0.389  0.38799999999999996  1.0000
  H   H51       1.0  0.8250000000000001  0.6110000000000001  0.888  1.0000
  H   H52       1.0  0.17499999999999996  0.6110000000000001  0.612  1.0000
  H   H53       1.0  0.6749999999999999  0.889  0.112  1.0000
  H   H54       1.0  0.32500000000000007  0.889  0.38799999999999996  1.0000
  H   H55       1.0  0.32500000000000007  0.11099999999999999  0.888  1.0000
  H   H56       1.0  0.6749999999999999  0.11099999999999999  0.612  1.0000
