data_image0
_chemical_formula_structural       Li4Te2Ti2O12
_chemical_formula_sum              "Li4 Te2 Ti2 O12"
_cell_length_a       5.072
_cell_length_b       4.903
_cell_length_c       8.402
_cell_angle_alpha    90.0
_cell_angle_beta     90.0
_cell_angle_gamma    90.0

_space_group_name_H-M_alt    "P 1"
_space_group_IT_number       1

loop_
  _space_group_symop_operation_xyz
  'x, y, z'

loop_
  _atom_site_type_symbol
  _atom_site_label
  _atom_site_symmetry_multiplicity
  _atom_site_fract_x
  _atom_site_fract_y
  _atom_site_fract_z
  _atom_site_occupancy
  Li  Li1       1.0  0.0  0.0  0.7230000000000001  1.0000
  Li  Li2       1.0  0.5  0.5  0.2230000000000001  1.0000
  Li  Li3       1.0  0.0  0.5  0.79  1.0000
  Li  Li4       1.0  0.5  0.0  0.29000000000000004  1.0000
  Te  Te1       1.0  0.0  0.0  0.10570000000000003  0.9400
  Te  Te2       1.0  0.5  0.5  0.6057000000000001  0.9400
  Ti  Ti1       1.0  0.0  0.5  0.4026  0.9400
  Ti  Ti2       1.0  0.5  0.0  0.9026000000000002  0.9400
  O   O1        1.0  0.166  0.254  0.257  1.0000
  O   O2        1.0  0.834  0.746  0.257  1.0000
  O   O3        1.0  0.33399999999999996  0.754  0.7570000000000001  1.0000
  O   O4        1.0  0.666  0.24600000000000002  0.7570000000000001  1.0000
  O   O5        1.0  0.669  0.20700000000000002  0.078  1.0000
  O   O6        1.0  0.33099999999999996  0.7929999999999999  0.078  1.0000
  O   O7        1.0  0.8309999999999998  0.7070000000000001  0.578  1.0000
  O   O8        1.0  0.16900000000000004  0.293  0.578  1.0000
  O   O9        1.0  0.829  0.793  0.938  1.0000
  O   O10       1.0  0.17100000000000004  0.20699999999999996  0.938  1.0000
  O   O11       1.0  0.671  0.29300000000000015  0.43799999999999994  1.0000
  O   O12       1.0  0.32899999999999996  0.707  0.43799999999999994  1.0000
  Ti  Ti3       1.0  0.0  0.0  0.10570000000000003  0.0600
  Ti  Ti4       1.0  0.5  0.5  0.6057000000000001  0.0600
  Te  Te3       1.0  0.0  0.5  0.4026  0.0600
  Te  Te4       1.0  0.5  0.0  0.9026000000000002  0.0600
